6-chloro-2-(4-chlorophenyl)-~{N}-isopropyl-imidazo[1,2-a]pyridin-3-amine
  -OEChem-10071509503D

 36 38  0     0  0  0  0  0  0999 V2000
   -2.0219    0.9228    1.2481 C   0  0  0  0  0  0  0  0  0  0  0  0
   -0.6651    1.3013    0.6723 C   0  0  0  0  0  0  0  0  0  0  0  0
   -0.7552    2.5294   -0.2217 C   0  0  0  0  0  0  0  0  0  0  0  0
   -0.1553    0.1952   -0.1030 N   0  0  0  0  0  0  0  0  0  0  0  0
    0.6132   -0.7901    0.4113 C   0  0  0  0  0  0  0  0  0  0  0  0
    1.8399   -0.7821    1.0325 C   0  0  0  0  0  0  0  0  0  0  0  0
    2.2272   -2.0488    1.3896 N   0  0  0  0  0  0  0  0  0  0  0  0
    1.2481   -2.8356    0.9924 C   0  0  0  0  0  0  0  0  0  0  0  0
    0.2302   -2.1066    0.3837 N   0  0  0  0  0  0  0  0  0  0  0  0
   -0.9290   -2.6813   -0.1316 C   0  0  0  0  0  0  0  0  0  0  0  0
   -1.0869   -4.0127   -0.0434 C   0  0  0  0  0  0  0  0  0  0  0  0
   -0.0474   -4.8139    0.5861 C   0  0  0  0  0  0  0  0  0  0  0  0
    1.0702   -4.2473    1.0814 C   0  0  0  0  0  0  0  0  0  0  0  0
   -2.4889   -4.7969   -0.6556 Cl  0  0  0  0  0  0  0  0  0  0  0  0
    2.6316    0.3834    1.2860 C   0  0  0  0  0  0  0  0  0  0  0  0
    2.9698    0.7251    2.5955 C   0  0  0  0  0  0  0  0  0  0  0  0
    3.7406    1.8610    2.8429 C   0  0  0  0  0  0  0  0  0  0  0  0
    4.1730    2.6553    1.7809 C   0  0  0  0  0  0  0  0  0  0  0  0
    3.8346    2.3137    0.4715 C   0  0  0  0  0  0  0  0  0  0  0  0
    3.0639    1.1777    0.2241 C   0  0  0  0  0  0  0  0  0  0  0  0
    5.1234    4.0573    2.0858 Cl  0  0  0  0  0  0  0  0  0  0  0  0
   -1.9409    0.0384    1.8884 H   0  0  0  0  0  0  0  0  0  0  0  0
   -2.4448    1.7387    1.8450 H   0  0  0  0  0  0  0  0  0  0  0  0
   -2.7347    0.6976    0.4473 H   0  0  0  0  0  0  0  0  0  0  0  0
    0.0392    1.4952    1.4886 H   0  0  0  0  0  0  0  0  0  0  0  0
    0.2293    2.7875   -0.6272 H   0  0  0  0  0  0  0  0  0  0  0  0
   -1.1279    3.3930    0.3387 H   0  0  0  0  0  0  0  0  0  0  0  0
   -1.4262    2.3582   -1.0709 H   0  0  0  0  0  0  0  0  0  0  0  0
   -0.3887    0.1555   -1.0889 H   0  0  0  0  0  0  0  0  0  0  0  0
   -1.6636   -2.0269   -0.5864 H   0  0  0  0  0  0  0  0  0  0  0  0
   -0.1853   -5.8884    0.6527 H   0  0  0  0  0  0  0  0  0  0  0  0
    1.8395   -4.8519    1.5484 H   0  0  0  0  0  0  0  0  0  0  0  0
    2.6405    0.1167    3.4346 H   0  0  0  0  0  0  0  0  0  0  0  0
    3.9968    2.1147    3.8685 H   0  0  0  0  0  0  0  0  0  0  0  0
    4.1642    2.9238   -0.3655 H   0  0  0  0  0  0  0  0  0  0  0  0
    2.8080    0.9256   -0.8025 H   0  0  0  0  0  0  0  0  0  0  0  0
  1  2  1  0  0  0  0
  2  3  1  0  0  0  0
  2  4  1  0  0  0  0
  4  5  1  0  0  0  0
  5  9  1  0  0  0  0
  5  6  2  0  0  0  0
  6  7  1  0  0  0  0
  7  8  2  0  0  0  0
  8 13  1  0  0  0  0
  8  9  1  0  0  0  0
  9 10  1  0  0  0  0
 10 11  2  0  0  0  0
 11 12  1  0  0  0  0
 12 13  2  0  0  0  0
 11 14  1  0  0  0  0
  6 15  1  0  0  0  0
 15 20  2  0  0  0  0
 15 16  1  0  0  0  0
 16 17  2  0  0  0  0
 17 18  1  0  0  0  0
 18 19  2  0  0  0  0
 19 20  1  0  0  0  0
 18 21  1  0  0  0  0
  1 22  1  0  0  0  0
  1 23  1  0  0  0  0
  1 24  1  0  0  0  0
  2 25  1  0  0  0  0
  3 26  1  0  0  0  0
  3 27  1  0  0  0  0
  3 28  1  0  0  0  0
  4 29  1  0  0  0  0
 10 30  1  0  0  0  0
 12 31  1  0  0  0  0
 13 32  1  0  0  0  0
 16 33  1  0  0  0  0
 17 34  1  0  0  0  0
 19 35  1  0  0  0  0
 20 36  1  0  0  0  0
M  END
$$$$
