quinoxaline-2-carboxamide
  -OEChem-10071509503D

 20 21  0     0  0  0  0  0  0999 V2000
    1.9338   -0.9390   -0.0015 C   0  0  0  0  0  0  0  0  0  0  0  0
    0.8925   -0.2271    0.5751 C   0  0  0  0  0  0  0  0  0  0  0  0
    0.9988    0.1958    1.8989 C   0  0  0  0  0  0  0  0  0  0  0  0
    2.1323   -0.0820    2.6593 C   0  0  0  0  0  0  0  0  0  0  0  0
    3.1886   -0.8044    2.0745 C   0  0  0  0  0  0  0  0  0  0  0  0
    3.0723   -1.2223    0.7509 C   0  0  0  0  0  0  0  0  0  0  0  0
    4.2972   -1.0899    2.7798 N   0  0  0  0  0  0  0  0  0  0  0  0
    4.3566   -0.6622    4.0538 C   0  0  0  0  0  0  0  0  0  0  0  0
    3.3285    0.0410    4.6230 C   0  0  0  0  0  0  0  0  0  0  0  0
    2.2113    0.3367    3.9346 N   0  0  0  0  0  0  0  0  0  0  0  0
    3.3903    0.5031    5.9960 C   0  0  0  0  0  0  0  0  0  0  0  0
    4.3890    0.2937    6.7107 O   0  0  0  0  0  0  0  0  0  0  0  0
    2.2988    1.2120    6.4950 N   0  0  0  0  0  0  0  0  0  0  0  0
    1.8636   -1.2742   -1.0317 H   0  0  0  0  0  0  0  0  0  0  0  0
   -0.0000    0.0000    0.0001 H   0  0  0  0  0  0  0  0  0  0  0  0
    0.1744    0.7536    2.3385 H   0  0  0  0  0  0  0  0  0  0  0  0
    3.8817   -1.7818    0.2859 H   0  0  0  0  0  0  0  0  0  0  0  0
    5.2639   -0.9101    4.5914 H   0  0  0  0  0  0  0  0  0  0  0  0
    1.4837    1.4253    5.9304 H   0  0  0  0  0  0  0  0  0  0  0  0
    2.2888    1.5758    7.4424 H   0  0  0  0  0  0  0  0  0  0  0  0
  1  6  2  0  0  0  0
  1  2  1  0  0  0  0
  2  3  2  0  0  0  0
  3  4  1  0  0  0  0
  4 10  2  0  0  0  0
  4  5  1  0  0  0  0
  5  6  1  0  0  0  0
  5  7  2  0  0  0  0
  7  8  1  0  0  0  0
  8  9  2  0  0  0  0
  9 10  1  0  0  0  0
  9 11  1  0  0  0  0
 11 12  2  0  0  0  0
 11 13  1  0  0  0  0
  1 14  1  0  0  0  0
  2 15  1  0  0  0  0
  3 16  1  0  0  0  0
  6 17  1  0  0  0  0
  8 18  1  0  0  0  0
 13 19  1  0  0  0  0
 13 20  1  0  0  0  0
M  END
$$$$
