2-phenylphthalazin-1-one
  -OEChem-10071509473D

 27 29  0     0  0  0  0  0  0999 V2000
    0.7937   -7.7304    5.9870 C   0  0  0  0  0  0  0  0  0  0  0  0
    1.5341   -8.0578    4.8510 C   0  0  0  0  0  0  0  0  0  0  0  0
    1.7475   -7.1016    3.8582 C   0  0  0  0  0  0  0  0  0  0  0  0
    1.2206   -5.8180    4.0012 C   0  0  0  0  0  0  0  0  0  0  0  0
    0.4803   -5.4906    5.1372 C   0  0  0  0  0  0  0  0  0  0  0  0
    0.2669   -6.4468    6.1301 C   0  0  0  0  0  0  0  0  0  0  0  0
    1.4415   -4.8282    2.9739 N   0  0  0  0  0  0  0  0  0  0  0  0
    0.5472   -3.7896    2.6615 C   0  0  0  0  0  0  0  0  0  0  0  0
   -0.5655   -3.6098    3.1501 O   0  0  0  0  0  0  0  0  0  0  0  0
    0.9721   -2.8287    1.6228 C   0  0  0  0  0  0  0  0  0  0  0  0
    0.1784   -1.7337    1.2678 C   0  0  0  0  0  0  0  0  0  0  0  0
    0.6158   -0.8512    0.2764 C   0  0  0  0  0  0  0  0  0  0  0  0
    1.8405   -1.0594   -0.3608 C   0  0  0  0  0  0  0  0  0  0  0  0
    2.6329   -2.1504   -0.0092 C   0  0  0  0  0  0  0  0  0  0  0  0
    2.1834   -3.0208    0.9821 C   0  0  0  0  0  0  0  0  0  0  0  0
    2.9736   -4.1685    1.3776 C   0  0  0  0  0  0  0  0  0  0  0  0
    2.6285   -5.0030    2.3011 N   0  0  0  0  0  0  0  0  0  0  0  0
    0.6284   -8.4750    6.7603 H   0  0  0  0  0  0  0  0  0  0  0  0
    1.9451   -9.0571    4.7404 H   0  0  0  0  0  0  0  0  0  0  0  0
    2.3262   -7.3681    2.9772 H   0  0  0  0  0  0  0  0  0  0  0  0
    0.0649   -4.4935    5.2597 H   0  0  0  0  0  0  0  0  0  0  0  0
   -0.3088   -6.1913    7.0148 H   0  0  0  0  0  0  0  0  0  0  0  0
   -0.7786   -1.5515    1.7487 H   0  0  0  0  0  0  0  0  0  0  0  0
    0.0000   -0.0000    0.0000 H   0  0  0  0  0  0  0  0  0  0  0  0
    2.1751   -0.3705   -1.1310 H   0  0  0  0  0  0  0  0  0  0  0  0
    3.5845   -2.3082   -0.5081 H   0  0  0  0  0  0  0  0  0  0  0  0
    3.9319   -4.3371    0.8587 H   0  0  0  0  0  0  0  0  0  0  0  0
  1  6  2  0  0  0  0
  1  2  1  0  0  0  0
  2  3  2  0  0  0  0
  3  4  1  0  0  0  0
  4  5  2  0  0  0  0
  5  6  1  0  0  0  0
  4  7  1  0  0  0  0
  7 17  1  0  0  0  0
  7  8  1  0  0  0  0
  8  9  2  0  0  0  0
  8 10  1  0  0  0  0
 10 15  2  0  0  0  0
 10 11  1  0  0  0  0
 11 12  2  0  0  0  0
 12 13  1  0  0  0  0
 13 14  2  0  0  0  0
 14 15  1  0  0  0  0
 15 16  1  0  0  0  0
 16 17  2  0  0  0  0
  1 18  1  0  0  0  0
  2 19  1  0  0  0  0
  3 20  1  0  0  0  0
  5 21  1  0  0  0  0
  6 22  1  0  0  0  0
 11 23  1  0  0  0  0
 12 24  1  0  0  0  0
 13 25  1  0  0  0  0
 14 26  1  0  0  0  0
 16 27  1  0  0  0  0
M  END
$$$$
