(2~{S})-2-[[4-[(2-amino-4-oxo-7,8-dihydro-1~{H}-pteridin-6-yl)methylamino]benzoy
  -OEChem-10071509503D

 53 55  0     1  0  0  0  0  0999 V2000
    2.4524    3.1229   -5.1492 C   0  0  0  0  0  0  0  0  0  0  0  0
    1.7168    3.0693   -3.9653 C   0  0  0  0  0  0  0  0  0  0  0  0
    0.5529    3.8265   -3.8324 C   0  0  0  0  0  0  0  0  0  0  0  0
    0.1247    4.6374   -4.8835 C   0  0  0  0  0  0  0  0  0  0  0  0
    0.8604    4.6910   -6.0675 C   0  0  0  0  0  0  0  0  0  0  0  0
    2.0242    3.9337   -6.2003 C   0  0  0  0  0  0  0  0  0  0  0  0
    2.7912    3.9896   -7.4346 C   0  0  0  0  0  0  0  0  0  0  0  0
    2.2378    4.2836   -8.5090 O   0  0  0  0  0  0  0  0  0  0  0  0
    4.1623    3.7230   -7.3434 N   0  0  0  0  0  0  0  0  0  0  0  0
    5.0609    3.7623   -8.4747 C   0  0  1  0  0  0  0  0  0  0  0  0
    4.4874    3.4878   -9.3744 H   0  0  0  0  0  0  0  0  0  0  0  0
    5.6818    5.1586   -8.6958 C   0  0  0  0  0  0  0  0  0  0  0  0
    6.5135    5.7134   -7.5360 C   0  0  0  0  0  0  0  0  0  0  0  0
    7.0979    7.0783   -7.8005 C   0  0  0  0  0  0  0  0  0  0  0  0
    6.9335    7.7018   -8.8413 O   0  0  0  0  0  0  0  0  0  0  0  0
    7.8180    7.5521   -6.7538 O   0  0  0  0  0  0  0  0  0  0  0  0
    6.1330    2.6971   -8.2831 C   0  0  0  0  0  0  0  0  0  0  0  0
    6.5505    2.3102   -7.1993 O   0  0  0  0  0  0  0  0  0  0  0  0
    6.5930    2.2038   -9.4635 O   0  0  0  0  0  0  0  0  0  0  0  0
   -0.1780    3.7734   -2.6563 N   0  0  0  0  0  0  0  0  0  0  0  0
    0.1891    2.9665   -1.5243 C   0  0  0  0  0  0  0  0  0  0  0  0
   -0.8473    3.1783   -0.4501 C   0  0  0  0  0  0  0  0  0  0  0  0
   -0.6555    4.1347    0.4089 N   0  0  0  0  0  0  0  0  0  0  0  0
   -1.6036    4.3231    1.3855 C   0  0  0  0  0  0  0  0  0  0  0  0
   -2.7241    3.5818    1.5165 C   0  0  0  0  0  0  0  0  0  0  0  0
   -3.5959    3.8727    2.5395 N   0  0  0  0  0  0  0  0  0  0  0  0
   -3.3534    4.8937    3.4243 C   0  0  0  0  0  0  0  0  0  0  0  0
   -2.2934    5.6554    3.3643 N   0  0  0  0  0  0  0  0  0  0  0  0
   -1.3550    5.4412    2.3682 C   0  0  0  0  0  0  0  0  0  0  0  0
   -0.3380    6.1225    2.2577 O   0  0  0  0  0  0  0  0  0  0  0  0
   -4.3251    5.0434    4.3793 N   0  0  0  0  0  0  0  0  0  0  0  0
   -2.9430    2.5647    0.6164 N   0  0  0  0  0  0  0  0  0  0  0  0
   -2.0434    2.2460   -0.4612 C   0  0  0  0  0  0  0  0  0  0  0  0
    3.3579    2.5287   -5.2419 H   0  0  0  0  0  0  0  0  0  0  0  0
    2.0592    2.4341   -3.1523 H   0  0  0  0  0  0  0  0  0  0  0  0
   -0.7807    5.2318   -4.7910 H   0  0  0  0  0  0  0  0  0  0  0  0
    0.5177    5.3262   -6.8802 H   0  0  0  0  0  0  0  0  0  0  0  0
    4.5746    3.5504   -6.4324 H   0  0  0  0  0  0  0  0  0  0  0  0
    4.8784    5.8626   -8.9474 H   0  0  0  0  0  0  0  0  0  0  0  0
    6.3353    5.1199   -9.5769 H   0  0  0  0  0  0  0  0  0  0  0  0
    5.9264    5.7602   -6.6124 H   0  0  0  0  0  0  0  0  0  0  0  0
    7.3496    5.0361   -7.3217 H   0  0  0  0  0  0  0  0  0  0  0  0
    7.8720    6.9524   -5.9792 H   0  0  0  0  0  0  0  0  0  0  0  0
    6.1840    2.5902  -10.2669 H   0  0  0  0  0  0  0  0  0  0  0  0
   -1.0202    4.3341   -2.5900 H   0  0  0  0  0  0  0  0  0  0  0  0
    0.2101    1.9096   -1.8011 H   0  0  0  0  0  0  0  0  0  0  0  0
    1.1686    3.2669   -1.1442 H   0  0  0  0  0  0  0  0  0  0  0  0
   -4.4281    3.2979    2.6095 H   0  0  0  0  0  0  0  0  0  0  0  0
   -4.2149    5.7644    5.0542 H   0  0  0  0  0  0  0  0  0  0  0  0
   -5.1030    4.4253    4.3607 H   0  0  0  0  0  0  0  0  0  0  0  0
   -3.7906    2.0205    0.7347 H   0  0  0  0  0  0  0  0  0  0  0  0
   -1.6874    1.2160   -0.3604 H   0  0  0  0  0  0  0  0  0  0  0  0
   -2.5580    2.3460   -1.4219 H   0  0  0  0  0  0  0  0  0  0  0  0
  1  6  2  0  0  0  0
  1  2  1  0  0  0  0
  2  3  2  0  0  0  0
  3  4  1  0  0  0  0
  4  5  2  0  0  0  0
  5  6  1  0  0  0  0
  6  7  1  0  0  0  0
  7  8  2  0  0  0  0
  7  9  1  0  0  0  0
  9 10  1  0  0  0  0
 10 11  1  0  0  0  0
 10 12  1  0  0  0  0
 12 13  1  0  0  0  0
 13 14  1  0  0  0  0
 14 15  2  0  0  0  0
 14 16  1  0  0  0  0
 10 17  1  0  0  0  0
 17 18  2  0  0  0  0
 17 19  1  0  0  0  0
  3 20  1  0  0  0  0
 20 21  1  0  0  0  0
 21 22  1  0  0  0  0
 22 33  1  0  0  0  0
 22 23  2  0  0  0  0
 23 24  1  0  0  0  0
 24 29  1  0  0  0  0
 24 25  2  0  0  0  0
 25 26  1  0  0  0  0
 26 27  1  0  0  0  0
 27 28  2  0  0  0  0
 28 29  1  0  0  0  0
 29 30  2  0  0  0  0
 27 31  1  0  0  0  0
 25 32  1  0  0  0  0
 32 33  1  0  0  0  0
  1 34  1  0  0  0  0
  2 35  1  0  0  0  0
  4 36  1  0  0  0  0
  5 37  1  0  0  0  0
  9 38  1  0  0  0  0
 12 39  1  0  0  0  0
 12 40  1  0  0  0  0
 13 41  1  0  0  0  0
 13 42  1  0  0  0  0
 16 43  1  0  0  0  0
 19 44  1  0  0  0  0
 20 45  1  0  0  0  0
 21 46  1  0  0  0  0
 21 47  1  0  0  0  0
 26 48  1  0  0  0  0
 31 49  1  0  0  0  0
 31 50  1  0  0  0  0
 32 51  1  0  0  0  0
 33 52  1  0  0  0  0
 33 53  1  0  0  0  0
M  END
$$$$
