2-[[2-[bis(2-hydroxyethyl)amino]-4,8-bis(1-piperidyl)pyrimido[5,4-d]pyrimidin-6-
  -OEChem-10071509483D

 76 79  0     0  0  0  0  0  0999 V2000
    4.5944   -5.4434  -10.3188 C   0  0  0  0  0  0  0  0  0  0  0  0
    4.8437   -4.0502   -9.7546 C   0  0  0  0  0  0  0  0  0  0  0  0
    3.6066   -3.4992   -9.0471 C   0  0  0  0  0  0  0  0  0  0  0  0
    3.1169   -4.4537   -8.0459 N   0  0  0  0  0  0  0  0  0  0  0  0
    2.8749   -5.8255   -8.5151 C   0  0  0  0  0  0  0  0  0  0  0  0
    4.1136   -6.3789   -9.2159 C   0  0  0  0  0  0  0  0  0  0  0  0
    2.3403   -3.9916   -6.9764 C   0  0  0  0  0  0  0  0  0  0  0  0
    2.9035   -3.0585   -6.1271 C   0  0  0  0  0  0  0  0  0  0  0  0
    2.0738   -2.6405   -5.0872 C   0  0  0  0  0  0  0  0  0  0  0  0
    2.6371   -1.7074   -4.2379 C   0  0  0  0  0  0  0  0  0  0  0  0
    3.8842   -1.2080   -4.3598 N   0  0  0  0  0  0  0  0  0  0  0  0
    4.5804   -1.6897   -5.3996 C   0  0  0  0  0  0  0  0  0  0  0  0
    4.1565   -2.5954   -6.2989 N   0  0  0  0  0  0  0  0  0  0  0  0
    5.8920   -1.1960   -5.5692 N   0  0  0  0  0  0  0  0  0  0  0  0
    6.4313   -0.2169   -4.6476 C   0  0  0  0  0  0  0  0  0  0  0  0
    7.1360   -0.9049   -3.4783 C   0  0  0  0  0  0  0  0  0  0  0  0
    6.1996   -1.7243   -2.7901 O   0  0  0  0  0  0  0  0  0  0  0  0
    6.7192   -1.6732   -6.6588 C   0  0  0  0  0  0  0  0  0  0  0  0
    6.5266   -0.8070   -7.9037 C   0  0  0  0  0  0  0  0  0  0  0  0
    6.8901    0.5330   -7.5968 O   0  0  0  0  0  0  0  0  0  0  0  0
    1.8600   -1.2437   -3.1694 N   0  0  0  0  0  0  0  0  0  0  0  0
    2.5653   -0.8390   -1.9449 C   0  0  0  0  0  0  0  0  0  0  0  0
    1.6388   -0.9370   -0.7350 C   0  0  0  0  0  0  0  0  0  0  0  0
    0.3422   -0.1690   -0.9625 C   0  0  0  0  0  0  0  0  0  0  0  0
   -0.3411   -0.6563   -2.2342 C   0  0  0  0  0  0  0  0  0  0  0  0
    0.5882   -0.5651   -3.4436 C   0  0  0  0  0  0  0  0  0  0  0  0
    0.8208   -3.1036   -4.9153 N   0  0  0  0  0  0  0  0  0  0  0  0
    0.3969   -4.0093   -5.8146 C   0  0  0  0  0  0  0  0  0  0  0  0
    1.0932   -4.4910   -6.8544 N   0  0  0  0  0  0  0  0  0  0  0  0
   -0.9142   -4.5038   -5.6443 N   0  0  0  0  0  0  0  0  0  0  0  0
   -1.7359   -4.0385   -4.5456 C   0  0  0  0  0  0  0  0  0  0  0  0
   -1.5382   -4.9188   -3.3114 C   0  0  0  0  0  0  0  0  0  0  0  0
   -0.1715   -4.8710   -2.9221 O   0  0  0  0  0  0  0  0  0  0  0  0
   -1.4586   -5.4721   -6.5745 C   0  0  0  0  0  0  0  0  0  0  0  0
   -2.1683   -4.7703   -7.7325 C   0  0  0  0  0  0  0  0  0  0  0  0
   -1.2345   -3.9438   -8.4158 O   0  0  0  0  0  0  0  0  0  0  0  0
    5.5154   -5.8353  -10.7642 H   0  0  0  0  0  0  0  0  0  0  0  0
    3.8438   -5.3925  -11.1166 H   0  0  0  0  0  0  0  0  0  0  0  0
    5.6791   -4.0936   -9.0442 H   0  0  0  0  0  0  0  0  0  0  0  0
    5.1427   -3.3699  -10.5599 H   0  0  0  0  0  0  0  0  0  0  0  0
    3.8698   -2.5473   -8.5690 H   0  0  0  0  0  0  0  0  0  0  0  0
    2.8181   -3.2944   -9.7828 H   0  0  0  0  0  0  0  0  0  0  0  0
    2.6281   -6.4783   -7.6685 H   0  0  0  0  0  0  0  0  0  0  0  0
    2.0199   -5.8377   -9.2035 H   0  0  0  0  0  0  0  0  0  0  0  0
    4.9178   -6.5149   -8.4816 H   0  0  0  0  0  0  0  0  0  0  0  0
    3.8912   -7.3664   -9.6354 H   0  0  0  0  0  0  0  0  0  0  0  0
    5.6186    0.4289   -4.2687 H   0  0  0  0  0  0  0  0  0  0  0  0
    7.1554    0.4310   -5.1730 H   0  0  0  0  0  0  0  0  0  0  0  0
    7.5294   -0.1714   -2.7677 H   0  0  0  0  0  0  0  0  0  0  0  0
    7.9587   -1.5334   -3.8348 H   0  0  0  0  0  0  0  0  0  0  0  0
    6.6799   -2.1432   -2.0579 H   0  0  0  0  0  0  0  0  0  0  0  0
    6.4659   -2.7238   -6.8895 H   0  0  0  0  0  0  0  0  0  0  0  0
    7.7824   -1.6434   -6.3609 H   0  0  0  0  0  0  0  0  0  0  0  0
    5.4811   -0.8078   -8.2272 H   0  0  0  0  0  0  0  0  0  0  0  0
    7.1552   -1.1627   -8.7267 H   0  0  0  0  0  0  0  0  0  0  0  0
    6.7558    1.0514   -8.4064 H   0  0  0  0  0  0  0  0  0  0  0  0
    3.4425   -1.4813   -1.7735 H   0  0  0  0  0  0  0  0  0  0  0  0
    2.9357    0.1926   -2.0527 H   0  0  0  0  0  0  0  0  0  0  0  0
    1.4045   -1.9912   -0.5396 H   0  0  0  0  0  0  0  0  0  0  0  0
    2.1495   -0.5511    0.1543 H   0  0  0  0  0  0  0  0  0  0  0  0
   -0.3261   -0.3044   -0.1051 H   0  0  0  0  0  0  0  0  0  0  0  0
    0.5548    0.9039   -1.0426 H   0  0  0  0  0  0  0  0  0  0  0  0
   -0.6568   -1.6983   -2.0966 H   0  0  0  0  0  0  0  0  0  0  0  0
   -1.2473   -0.0686   -2.4191 H   0  0  0  0  0  0  0  0  0  0  0  0
    0.0859   -1.0183   -4.3118 H   0  0  0  0  0  0  0  0  0  0  0  0
    0.7761    0.4911   -3.6930 H   0  0  0  0  0  0  0  0  0  0  0  0
   -2.7998   -4.0442   -4.8444 H   0  0  0  0  0  0  0  0  0  0  0  0
   -1.4656   -2.9979   -4.2921 H   0  0  0  0  0  0  0  0  0  0  0  0
   -1.7922   -5.9616   -3.5256 H   0  0  0  0  0  0  0  0  0  0  0  0
   -2.1543   -4.5652   -2.4782 H   0  0  0  0  0  0  0  0  0  0  0  0
   -0.0838   -5.4386   -2.1395 H   0  0  0  0  0  0  0  0  0  0  0  0
   -2.1660   -6.1395   -6.0497 H   0  0  0  0  0  0  0  0  0  0  0  0
   -0.6445   -6.0997   -6.9788 H   0  0  0  0  0  0  0  0  0  0  0  0
   -2.9809   -4.1333   -7.3695 H   0  0  0  0  0  0  0  0  0  0  0  0
   -2.5756   -5.5004   -8.4395 H   0  0  0  0  0  0  0  0  0  0  0  0
   -1.7179   -3.5163   -9.1409 H   0  0  0  0  0  0  0  0  0  0  0  0
  1  6  1  0  0  0  0
  1  2  1  0  0  0  0
  2  3  1  0  0  0  0
  3  4  1  0  0  0  0
  4  5  1  0  0  0  0
  5  6  1  0  0  0  0
  4  7  1  0  0  0  0
  7 29  2  0  0  0  0
  7  8  1  0  0  0  0
  8 13  2  0  0  0  0
  8  9  1  0  0  0  0
  9 10  2  0  0  0  0
 10 11  1  0  0  0  0
 11 12  2  0  0  0  0
 12 13  1  0  0  0  0
 12 14  1  0  0  0  0
 14 15  1  0  0  0  0
 15 16  1  0  0  0  0
 16 17  1  0  0  0  0
 14 18  1  0  0  0  0
 18 19  1  0  0  0  0
 19 20  1  0  0  0  0
 10 21  1  0  0  0  0
 21 26  1  0  0  0  0
 21 22  1  0  0  0  0
 22 23  1  0  0  0  0
 23 24  1  0  0  0  0
 24 25  1  0  0  0  0
 25 26  1  0  0  0  0
  9 27  1  0  0  0  0
 27 28  2  0  0  0  0
 28 29  1  0  0  0  0
 28 30  1  0  0  0  0
 30 31  1  0  0  0  0
 31 32  1  0  0  0  0
 32 33  1  0  0  0  0
 30 34  1  0  0  0  0
 34 35  1  0  0  0  0
 35 36  1  0  0  0  0
  1 37  1  0  0  0  0
  1 38  1  0  0  0  0
  2 39  1  0  0  0  0
  2 40  1  0  0  0  0
  3 41  1  0  0  0  0
  3 42  1  0  0  0  0
  5 43  1  0  0  0  0
  5 44  1  0  0  0  0
  6 45  1  0  0  0  0
  6 46  1  0  0  0  0
 15 47  1  0  0  0  0
 15 48  1  0  0  0  0
 16 49  1  0  0  0  0
 16 50  1  0  0  0  0
 17 51  1  0  0  0  0
 18 52  1  0  0  0  0
 18 53  1  0  0  0  0
 19 54  1  0  0  0  0
 19 55  1  0  0  0  0
 20 56  1  0  0  0  0
 22 57  1  0  0  0  0
 22 58  1  0  0  0  0
 23 59  1  0  0  0  0
 23 60  1  0  0  0  0
 24 61  1  0  0  0  0
 24 62  1  0  0  0  0
 25 63  1  0  0  0  0
 25 64  1  0  0  0  0
 26 65  1  0  0  0  0
 26 66  1  0  0  0  0
 31 67  1  0  0  0  0
 31 68  1  0  0  0  0
 32 69  1  0  0  0  0
 32 70  1  0  0  0  0
 33 71  1  0  0  0  0
 34 72  1  0  0  0  0
 34 73  1  0  0  0  0
 35 74  1  0  0  0  0
 35 75  1  0  0  0  0
 36 76  1  0  0  0  0
M  END
$$$$
