4-piperidyl(3-pyridyl)methanone
  -OEChem-10071509473D

 28 29  0     0  0  0  0  0  0999 V2000
    0.6961   -0.5757    2.5788 C   0  0  0  0  0  0  0  0  0  0  0  0
    0.4671    0.1672    1.4260 C   0  0  0  0  0  0  0  0  0  0  0  0
    0.4354   -0.4693    0.1902 C   0  0  0  0  0  0  0  0  0  0  0  0
    0.6370   -1.8398    0.1613 C   0  0  0  0  0  0  0  0  0  0  0  0
    0.8622   -2.5950    1.2598 N   0  0  0  0  0  0  0  0  0  0  0  0
    0.8858   -1.9415    2.4430 C   0  0  0  0  0  0  0  0  0  0  0  0
    0.1978    0.2857   -1.0427 C   0  0  0  0  0  0  0  0  0  0  0  0
    0.5200    1.4568   -1.2143 O   0  0  0  0  0  0  0  0  0  0  0  0
   -0.4835   -0.4384   -2.1696 C   0  0  0  0  0  0  0  0  0  0  0  0
   -0.5769    0.4511   -3.4111 C   0  0  0  0  0  0  0  0  0  0  0  0
   -1.6538    1.5284   -3.2727 C   0  0  0  0  0  0  0  0  0  0  0  0
   -2.9526    0.9479   -2.9337 N   0  0  0  0  0  0  0  0  0  0  0  0
   -2.8909    0.2055   -1.6751 C   0  0  0  0  0  0  0  0  0  0  0  0
   -1.8684   -0.9300   -1.7434 C   0  0  0  0  0  0  0  0  0  0  0  0
    0.7230   -0.1010    3.5529 H   0  0  0  0  0  0  0  0  0  0  0  0
    0.3129    1.2403    1.5017 H   0  0  0  0  0  0  0  0  0  0  0  0
    0.6227   -2.3914   -0.7740 H   0  0  0  0  0  0  0  0  0  0  0  0
    1.0665   -2.5660    3.3117 H   0  0  0  0  0  0  0  0  0  0  0  0
    0.1488   -1.3005   -2.3955 H   0  0  0  0  0  0  0  0  0  0  0  0
    0.3889    0.9299   -3.6119 H   0  0  0  0  0  0  0  0  0  0  0  0
   -0.8089   -0.1760   -4.2819 H   0  0  0  0  0  0  0  0  0  0  0  0
   -1.3647    2.2743   -2.5232 H   0  0  0  0  0  0  0  0  0  0  0  0
   -1.7456    2.0609   -4.2260 H   0  0  0  0  0  0  0  0  0  0  0  0
   -3.6427    1.6938   -2.8506 H   0  0  0  0  0  0  0  0  0  0  0  0
   -2.6572    0.8848   -0.8465 H   0  0  0  0  0  0  0  0  0  0  0  0
   -3.8796   -0.2184   -1.4672 H   0  0  0  0  0  0  0  0  0  0  0  0
   -1.8156   -1.4272   -0.7674 H   0  0  0  0  0  0  0  0  0  0  0  0
   -2.2168   -1.6811   -2.4644 H   0  0  0  0  0  0  0  0  0  0  0  0
  1  6  2  0  0  0  0
  1  2  1  0  0  0  0
  2  3  2  0  0  0  0
  3  4  1  0  0  0  0
  4  5  2  0  0  0  0
  5  6  1  0  0  0  0
  3  7  1  0  0  0  0
  7  8  2  0  0  0  0
  7  9  1  0  0  0  0
  9 14  1  0  0  0  0
  9 10  1  0  0  0  0
 10 11  1  0  0  0  0
 11 12  1  0  0  0  0
 12 13  1  0  0  0  0
 13 14  1  0  0  0  0
  1 15  1  0  0  0  0
  2 16  1  0  0  0  0
  4 17  1  0  0  0  0
  6 18  1  0  0  0  0
  9 19  1  0  0  0  0
 10 20  1  0  0  0  0
 10 21  1  0  0  0  0
 11 22  1  0  0  0  0
 11 23  1  0  0  0  0
 12 24  1  0  0  0  0
 13 25  1  0  0  0  0
 13 26  1  0  0  0  0
 14 27  1  0  0  0  0
 14 28  1  0  0  0  0
M  END
$$$$
