~{N}-benzyl-3-[2-(pyridine-4-carbonyl)hydrazino]propanamide
  -OEChem-10071509493D

 40 41  0     0  0  0  0  0  0999 V2000
   -2.5375    0.9398   -1.7502 C   0  0  0  0  0  0  0  0  0  0  0  0
   -2.0231    1.6886   -0.6917 C   0  0  0  0  0  0  0  0  0  0  0  0
   -0.9399    1.2057    0.0426 C   0  0  0  0  0  0  0  0  0  0  0  0
   -0.3710   -0.0259   -0.2818 C   0  0  0  0  0  0  0  0  0  0  0  0
   -0.8853   -0.7746   -1.3404 C   0  0  0  0  0  0  0  0  0  0  0  0
   -1.9685   -0.2917   -2.0746 C   0  0  0  0  0  0  0  0  0  0  0  0
    0.7948   -0.5451    0.5091 C   0  0  0  0  0  0  0  0  0  0  0  0
    2.0584   -0.1208   -0.0484 N   0  0  0  0  0  0  0  0  0  0  0  0
    2.7450   -0.8534   -1.0055 C   0  0  0  0  0  0  0  0  0  0  0  0
    2.3723   -1.9221   -1.4817 O   0  0  0  0  0  0  0  0  0  0  0  0
    4.0386   -0.1694   -1.4101 C   0  0  0  0  0  0  0  0  0  0  0  0
    4.8101   -0.9562   -2.4608 C   0  0  0  0  0  0  0  0  0  0  0  0
    6.0244   -0.2558   -2.8010 N   0  0  0  0  0  0  0  0  0  0  0  0
    6.7454   -0.9593   -3.7615 N   0  0  0  0  0  0  0  0  0  0  0  0
    7.0100   -0.3549   -4.9778 C   0  0  0  0  0  0  0  0  0  0  0  0
    6.6572    0.7778   -5.2973 O   0  0  0  0  0  0  0  0  0  0  0  0
    7.7669   -1.1808   -5.9544 C   0  0  0  0  0  0  0  0  0  0  0  0
    7.6871   -2.5680   -5.9051 C   0  0  0  0  0  0  0  0  0  0  0  0
    8.4118   -3.2929   -6.8373 C   0  0  0  0  0  0  0  0  0  0  0  0
    9.1910   -2.7346   -7.7906 N   0  0  0  0  0  0  0  0  0  0  0  0
    9.2438   -1.3838   -7.8074 C   0  0  0  0  0  0  0  0  0  0  0  0
    8.5579   -0.5694   -6.9208 C   0  0  0  0  0  0  0  0  0  0  0  0
   -3.3800    1.3163   -2.3229 H   0  0  0  0  0  0  0  0  0  0  0  0
   -2.4651    2.6480   -0.4396 H   0  0  0  0  0  0  0  0  0  0  0  0
   -0.5459    1.7959    0.8657 H   0  0  0  0  0  0  0  0  0  0  0  0
   -0.4485   -1.7353   -1.6001 H   0  0  0  0  0  0  0  0  0  0  0  0
   -2.3682   -0.8744   -2.8995 H   0  0  0  0  0  0  0  0  0  0  0  0
    0.7472   -0.1911    1.5447 H   0  0  0  0  0  0  0  0  0  0  0  0
    0.7929   -1.6398    0.5392 H   0  0  0  0  0  0  0  0  0  0  0  0
    2.4352    0.7706    0.2603 H   0  0  0  0  0  0  0  0  0  0  0  0
    3.7959    0.8300   -1.7920 H   0  0  0  0  0  0  0  0  0  0  0  0
    4.6550   -0.0368   -0.5121 H   0  0  0  0  0  0  0  0  0  0  0  0
    4.2041   -1.0896   -3.3634 H   0  0  0  0  0  0  0  0  0  0  0  0
    5.0609   -1.9546   -2.0866 H   0  0  0  0  0  0  0  0  0  0  0  0
    6.6326   -0.1855   -1.9800 H   0  0  0  0  0  0  0  0  0  0  0  0
    7.0722   -1.9015   -3.5725 H   0  0  0  0  0  0  0  0  0  0  0  0
    7.0806   -3.0772   -5.1635 H   0  0  0  0  0  0  0  0  0  0  0  0
    8.3843   -4.3774   -6.8408 H   0  0  0  0  0  0  0  0  0  0  0  0
    9.8740   -0.9563   -8.5801 H   0  0  0  0  0  0  0  0  0  0  0  0
    8.6425    0.5101   -6.9864 H   0  0  0  0  0  0  0  0  0  0  0  0
  1  6  2  0  0  0  0
  1  2  1  0  0  0  0
  2  3  2  0  0  0  0
  3  4  1  0  0  0  0
  4  5  2  0  0  0  0
  5  6  1  0  0  0  0
  4  7  1  0  0  0  0
  7  8  1  0  0  0  0
  8  9  1  0  0  0  0
  9 10  2  0  0  0  0
  9 11  1  0  0  0  0
 11 12  1  0  0  0  0
 12 13  1  0  0  0  0
 13 14  1  0  0  0  0
 14 15  1  0  0  0  0
 15 16  2  0  0  0  0
 15 17  1  0  0  0  0
 17 22  2  0  0  0  0
 17 18  1  0  0  0  0
 18 19  2  0  0  0  0
 19 20  1  0  0  0  0
 20 21  2  0  0  0  0
 21 22  1  0  0  0  0
  1 23  1  0  0  0  0
  2 24  1  0  0  0  0
  3 25  1  0  0  0  0
  5 26  1  0  0  0  0
  6 27  1  0  0  0  0
  7 28  1  0  0  0  0
  7 29  1  0  0  0  0
  8 30  1  0  0  0  0
 11 31  1  0  0  0  0
 11 32  1  0  0  0  0
 12 33  1  0  0  0  0
 12 34  1  0  0  0  0
 13 35  1  0  0  0  0
 14 36  1  0  0  0  0
 18 37  1  0  0  0  0
 19 38  1  0  0  0  0
 21 39  1  0  0  0  0
 22 40  1  0  0  0  0
M  END
$$$$
