2-butoxy-~{N}-[2-(diethylamino)ethyl]quinoline-4-carboxamide
  -OEChem-10071509503D

 54 55  0     0  0  0  0  0  0999 V2000
  -10.2662    0.3841   -1.4568 C   0  0  0  0  0  0  0  0  0  0  0  0
   -8.7636    0.3086   -1.2389 C   0  0  0  0  0  0  0  0  0  0  0  0
   -8.0984    1.6652   -1.4533 C   0  0  0  0  0  0  0  0  0  0  0  0
   -6.5936    1.5940   -1.2361 C   0  0  0  0  0  0  0  0  0  0  0  0
   -6.0366    2.8855   -1.4504 O   0  0  0  0  0  0  0  0  0  0  0  0
   -4.6804    3.0058   -1.2959 C   0  0  0  0  0  0  0  0  0  0  0  0
   -4.0902    4.2376   -1.4936 C   0  0  0  0  0  0  0  0  0  0  0  0
   -2.7151    4.3237   -1.3301 C   0  0  0  0  0  0  0  0  0  0  0  0
   -1.9747    3.1875   -0.9770 C   0  0  0  0  0  0  0  0  0  0  0  0
   -0.5812    3.2417   -0.8037 C   0  0  0  0  0  0  0  0  0  0  0  0
    0.1298    2.0977   -0.4527 C   0  0  0  0  0  0  0  0  0  0  0  0
   -0.5469    0.8976   -0.2738 C   0  0  0  0  0  0  0  0  0  0  0  0
   -1.9323    0.8440   -0.4461 C   0  0  0  0  0  0  0  0  0  0  0  0
   -2.6683    1.9725   -0.7968 C   0  0  0  0  0  0  0  0  0  0  0  0
   -4.0027    1.8858   -0.9548 N   0  0  0  0  0  0  0  0  0  0  0  0
   -2.0995    5.6305   -1.5410 C   0  0  0  0  0  0  0  0  0  0  0  0
   -1.4741    6.1832   -0.6225 O   0  0  0  0  0  0  0  0  0  0  0  0
   -2.2347    6.1927   -2.8130 N   0  0  0  0  0  0  0  0  0  0  0  0
   -1.6625    7.4670   -3.1836 C   0  0  0  0  0  0  0  0  0  0  0  0
   -0.2597    7.3174   -3.7409 C   0  0  0  0  0  0  0  0  0  0  0  0
    0.3132    8.5833   -4.1108 N   0  0  0  0  0  0  0  0  0  0  0  0
    0.4004    9.4899   -2.9555 C   0  0  0  0  0  0  0  0  0  0  0  0
    1.2478    8.8864   -1.9046 C   0  0  0  0  0  0  0  0  0  0  0  0
   -0.4602    9.2282   -5.1834 C   0  0  0  0  0  0  0  0  0  0  0  0
   -0.4811    8.3605   -6.3807 C   0  0  0  0  0  0  0  0  0  0  0  0
  -10.7349   -0.5928   -1.3010 H   0  0  0  0  0  0  0  0  0  0  0  0
  -10.7268    1.1001   -0.7686 H   0  0  0  0  0  0  0  0  0  0  0  0
  -10.4852    0.7068   -2.4794 H   0  0  0  0  0  0  0  0  0  0  0  0
   -8.5652   -0.0466   -0.2209 H   0  0  0  0  0  0  0  0  0  0  0  0
   -8.3370   -0.4289   -1.9287 H   0  0  0  0  0  0  0  0  0  0  0  0
   -8.3021    2.0322   -2.4669 H   0  0  0  0  0  0  0  0  0  0  0  0
   -8.5286    2.4108   -0.7729 H   0  0  0  0  0  0  0  0  0  0  0  0
   -6.3609    1.2798   -0.2137 H   0  0  0  0  0  0  0  0  0  0  0  0
   -6.1300    0.8940   -1.9386 H   0  0  0  0  0  0  0  0  0  0  0  0
   -4.6851    5.1038   -1.7649 H   0  0  0  0  0  0  0  0  0  0  0  0
   -0.0262    4.1669   -0.9367 H   0  0  0  0  0  0  0  0  0  0  0  0
    1.2064    2.1423   -0.3194 H   0  0  0  0  0  0  0  0  0  0  0  0
   -0.0001   -0.0001   -0.0005 H   0  0  0  0  0  0  0  0  0  0  0  0
   -2.4396   -0.1078   -0.3000 H   0  0  0  0  0  0  0  0  0  0  0  0
   -2.7030    5.6670   -3.5438 H   0  0  0  0  0  0  0  0  0  0  0  0
   -2.3395    7.9228   -3.9100 H   0  0  0  0  0  0  0  0  0  0  0  0
   -1.6495    8.0803   -2.2797 H   0  0  0  0  0  0  0  0  0  0  0  0
    0.3980    6.8754   -2.9861 H   0  0  0  0  0  0  0  0  0  0  0  0
   -0.2469    6.6781   -4.6295 H   0  0  0  0  0  0  0  0  0  0  0  0
    0.8192   10.4161   -3.3326 H   0  0  0  0  0  0  0  0  0  0  0  0
   -0.6188    9.6471   -2.6213 H   0  0  0  0  0  0  0  0  0  0  0  0
    1.3305    9.5414   -1.0304 H   0  0  0  0  0  0  0  0  0  0  0  0
    0.8622    7.9107   -1.5895 H   0  0  0  0  0  0  0  0  0  0  0  0
    2.2551    8.7373   -2.3115 H   0  0  0  0  0  0  0  0  0  0  0  0
   -1.4540    9.3888   -4.7810 H   0  0  0  0  0  0  0  0  0  0  0  0
    0.0264   10.1780   -5.3731 H   0  0  0  0  0  0  0  0  0  0  0  0
   -1.0514    8.8167   -7.1971 H   0  0  0  0  0  0  0  0  0  0  0  0
    0.5322    8.1347   -6.7303 H   0  0  0  0  0  0  0  0  0  0  0  0
   -0.9673    7.4136   -6.1169 H   0  0  0  0  0  0  0  0  0  0  0  0
  1  2  1  0  0  0  0
  2  3  1  0  0  0  0
  3  4  1  0  0  0  0
  4  5  1  0  0  0  0
  5  6  1  0  0  0  0
  6 15  2  0  0  0  0
  6  7  1  0  0  0  0
  7  8  2  0  0  0  0
  8  9  1  0  0  0  0
  9 14  2  0  0  0  0
  9 10  1  0  0  0  0
 10 11  2  0  0  0  0
 11 12  1  0  0  0  0
 12 13  2  0  0  0  0
 13 14  1  0  0  0  0
 14 15  1  0  0  0  0
  8 16  1  0  0  0  0
 16 17  2  0  0  0  0
 16 18  1  0  0  0  0
 18 19  1  0  0  0  0
 19 20  1  0  0  0  0
 20 21  1  0  0  0  0
 21 22  1  0  0  0  0
 22 23  1  0  0  0  0
 21 24  1  0  0  0  0
 24 25  1  0  0  0  0
  1 26  1  0  0  0  0
  1 27  1  0  0  0  0
  1 28  1  0  0  0  0
  2 29  1  0  0  0  0
  2 30  1  0  0  0  0
  3 31  1  0  0  0  0
  3 32  1  0  0  0  0
  4 33  1  0  0  0  0
  4 34  1  0  0  0  0
  7 35  1  0  0  0  0
 10 36  1  0  0  0  0
 11 37  1  0  0  0  0
 12 38  1  0  0  0  0
 13 39  1  0  0  0  0
 18 40  1  0  0  0  0
 19 41  1  0  0  0  0
 19 42  1  0  0  0  0
 20 43  1  0  0  0  0
 20 44  1  0  0  0  0
 22 45  1  0  0  0  0
 22 46  1  0  0  0  0
 23 47  1  0  0  0  0
 23 48  1  0  0  0  0
 23 49  1  0  0  0  0
 24 50  1  0  0  0  0
 24 51  1  0  0  0  0
 25 52  1  0  0  0  0
 25 53  1  0  0  0  0
 25 54  1  0  0  0  0
M  END
$$$$
