2-benzhydryloxy-~{N},~{N}-dimethyl-ethanamine
  -OEChem-10071509483D

 40 41  0     0  0  0  0  0  0999 V2000
   -3.0309   -4.3987    0.7979 C   0  0  0  0  0  0  0  0  0  0  0  0
   -2.9518   -3.6838    2.0713 N   0  0  0  0  0  0  0  0  0  0  0  0
   -4.0460   -2.7203    2.1854 C   0  0  0  0  0  0  0  0  0  0  0  0
   -1.6607   -3.0087    2.1990 C   0  0  0  0  0  0  0  0  0  0  0  0
   -0.5878   -4.0001    2.6333 C   0  0  0  0  0  0  0  0  0  0  0  0
    0.6560   -3.3210    2.7503 O   0  0  0  0  0  0  0  0  0  0  0  0
    1.6948   -4.2023    3.1542 C   0  0  0  0  0  0  0  0  0  0  0  0
    2.2024   -5.0019    1.9681 C   0  0  0  0  0  0  0  0  0  0  0  0
    2.7128   -6.2859    2.1598 C   0  0  0  0  0  0  0  0  0  0  0  0
    3.1794   -7.0208    1.0700 C   0  0  0  0  0  0  0  0  0  0  0  0
    3.1357   -6.4718   -0.2116 C   0  0  0  0  0  0  0  0  0  0  0  0
    2.6253   -5.1879   -0.4033 C   0  0  0  0  0  0  0  0  0  0  0  0
    2.1587   -4.4529    0.6866 C   0  0  0  0  0  0  0  0  0  0  0  0
    2.8107   -3.4740    3.8856 C   0  0  0  0  0  0  0  0  0  0  0  0
    3.5526   -4.1371    4.8631 C   0  0  0  0  0  0  0  0  0  0  0  0
    4.5765   -3.4689    5.5345 C   0  0  0  0  0  0  0  0  0  0  0  0
    4.8584   -2.1375    5.2284 C   0  0  0  0  0  0  0  0  0  0  0  0
    4.1164   -1.4744    4.2509 C   0  0  0  0  0  0  0  0  0  0  0  0
    3.0925   -2.1427    3.5795 C   0  0  0  0  0  0  0  0  0  0  0  0
   -2.2108   -5.1170    0.7187 H   0  0  0  0  0  0  0  0  0  0  0  0
   -2.9636   -3.6944   -0.0357 H   0  0  0  0  0  0  0  0  0  0  0  0
   -3.9792   -4.9379    0.7255 H   0  0  0  0  0  0  0  0  0  0  0  0
   -3.9624   -2.2061    3.1369 H   0  0  0  0  0  0  0  0  0  0  0  0
   -4.9906   -3.2512    2.1317 H   0  0  0  0  0  0  0  0  0  0  0  0
   -3.9750   -2.0077    1.3705 H   0  0  0  0  0  0  0  0  0  0  0  0
   -1.7505   -2.1931    2.9323 H   0  0  0  0  0  0  0  0  0  0  0  0
   -1.3867   -2.5705    1.2279 H   0  0  0  0  0  0  0  0  0  0  0  0
   -0.4709   -4.7934    1.8886 H   0  0  0  0  0  0  0  0  0  0  0  0
   -0.8349   -4.4513    3.5998 H   0  0  0  0  0  0  0  0  0  0  0  0
    1.2162   -4.8983    3.8589 H   0  0  0  0  0  0  0  0  0  0  0  0
    2.7510   -6.7211    3.1549 H   0  0  0  0  0  0  0  0  0  0  0  0
    3.5766   -8.0206    1.2193 H   0  0  0  0  0  0  0  0  0  0  0  0
    3.4988   -7.0439   -1.0604 H   0  0  0  0  0  0  0  0  0  0  0  0
    2.5917   -4.7602   -1.4010 H   0  0  0  0  0  0  0  0  0  0  0  0
    1.7624   -3.4536    0.5272 H   0  0  0  0  0  0  0  0  0  0  0  0
    3.3394   -5.1742    5.1081 H   0  0  0  0  0  0  0  0  0  0  0  0
    5.1543   -3.9853    6.2954 H   0  0  0  0  0  0  0  0  0  0  0  0
    5.6557   -1.6170    5.7510 H   0  0  0  0  0  0  0  0  0  0  0  0
    4.3356   -0.4377    4.0130 H   0  0  0  0  0  0  0  0  0  0  0  0
    2.5202   -1.6177    2.8192 H   0  0  0  0  0  0  0  0  0  0  0  0
  1  2  1  0  0  0  0
  2  3  1  0  0  0  0
  2  4  1  0  0  0  0
  4  5  1  0  0  0  0
  5  6  1  0  0  0  0
  6  7  1  0  0  0  0
  7  8  1  0  0  0  0
  8 13  2  0  0  0  0
  8  9  1  0  0  0  0
  9 10  2  0  0  0  0
 10 11  1  0  0  0  0
 11 12  2  0  0  0  0
 12 13  1  0  0  0  0
  7 14  1  0  0  0  0
 14 19  2  0  0  0  0
 14 15  1  0  0  0  0
 15 16  2  0  0  0  0
 16 17  1  0  0  0  0
 17 18  2  0  0  0  0
 18 19  1  0  0  0  0
  1 20  1  0  0  0  0
  1 21  1  0  0  0  0
  1 22  1  0  0  0  0
  3 23  1  0  0  0  0
  3 24  1  0  0  0  0
  3 25  1  0  0  0  0
  4 26  1  0  0  0  0
  4 27  1  0  0  0  0
  5 28  1  0  0  0  0
  5 29  1  0  0  0  0
  7 30  1  0  0  0  0
  9 31  1  0  0  0  0
 10 32  1  0  0  0  0
 11 33  1  0  0  0  0
 12 34  1  0  0  0  0
 13 35  1  0  0  0  0
 15 36  1  0  0  0  0
 16 37  1  0  0  0  0
 17 38  1  0  0  0  0
 18 39  1  0  0  0  0
 19 40  1  0  0  0  0
M  END
$$$$
