~{N}-(1,3-benzothiazol-6-yl)-2-oxo-chromene-3-carboxamide
  -OEChem-10071509503D

 33 36  0     0  0  0  0  0  0999 V2000
   -2.0695    2.5977    0.1009 C   0  0  0  0  0  0  0  0  0  0  0  0
   -1.7503    1.2505   -0.0827 C   0  0  0  0  0  0  0  0  0  0  0  0
   -1.6162    0.7346   -1.3698 C   0  0  0  0  0  0  0  0  0  0  0  0
   -1.8050    1.5815   -2.4601 C   0  0  0  0  0  0  0  0  0  0  0  0
   -2.1234    2.9264   -2.2967 C   0  0  0  0  0  0  0  0  0  0  0  0
   -2.2560    3.4354   -1.0026 C   0  0  0  0  0  0  0  0  0  0  0  0
   -2.3067    3.7547   -3.4782 C   0  0  0  0  0  0  0  0  0  0  0  0
   -2.1693    3.2227   -4.6962 C   0  0  0  0  0  0  0  0  0  0  0  0
   -1.8318    1.7979   -4.8982 C   0  0  0  0  0  0  0  0  0  0  0  0
   -1.7062    1.3114   -6.0167 O   0  0  0  0  0  0  0  0  0  0  0  0
   -1.6626    1.0302   -3.7491 O   0  0  0  0  0  0  0  0  0  0  0  0
   -2.3714    4.1394   -5.8254 C   0  0  0  0  0  0  0  0  0  0  0  0
   -3.4527    4.7085   -5.9625 O   0  0  0  0  0  0  0  0  0  0  0  0
   -1.2432    4.2380   -6.6276 N   0  0  0  0  0  0  0  0  0  0  0  0
   -1.0799    5.0226   -7.7953 C   0  0  0  0  0  0  0  0  0  0  0  0
    0.1314    4.9974   -8.4776 C   0  0  0  0  0  0  0  0  0  0  0  0
    0.3125    5.7647   -9.6320 C   0  0  0  0  0  0  0  0  0  0  0  0
   -0.7428    6.5717  -10.1094 C   0  0  0  0  0  0  0  0  0  0  0  0
   -1.9515    6.5805   -9.4067 C   0  0  0  0  0  0  0  0  0  0  0  0
   -2.1404    5.8125   -8.2464 C   0  0  0  0  0  0  0  0  0  0  0  0
   -3.0569    7.6399  -10.1996 S   0  0  0  0  0  0  0  0  0  0  0  0
   -1.8652    7.9863  -11.3768 C   0  0  0  0  0  0  0  0  0  0  0  0
   -0.7089    7.3815  -11.2354 N   0  0  0  0  0  0  0  0  0  0  0  0
   -2.1732    2.9967    1.1060 H   0  0  0  0  0  0  0  0  0  0  0  0
   -1.6068    0.6051    0.7789 H   0  0  0  0  0  0  0  0  0  0  0  0
   -1.3682   -0.3124   -1.5143 H   0  0  0  0  0  0  0  0  0  0  0  0
   -2.5036    4.4811   -0.8376 H   0  0  0  0  0  0  0  0  0  0  0  0
   -2.5542    4.8008   -3.3268 H   0  0  0  0  0  0  0  0  0  0  0  0
   -0.4393    3.6816   -6.3435 H   0  0  0  0  0  0  0  0  0  0  0  0
    0.9533    4.3807   -8.1212 H   0  0  0  0  0  0  0  0  0  0  0  0
    1.2628    5.7368  -10.1578 H   0  0  0  0  0  0  0  0  0  0  0  0
   -3.0884    5.8337   -7.7158 H   0  0  0  0  0  0  0  0  0  0  0  0
   -2.0593    8.6684  -12.1931 H   0  0  0  0  0  0  0  0  0  0  0  0
  1  6  2  0  0  0  0
  1  2  1  0  0  0  0
  2  3  2  0  0  0  0
  3  4  1  0  0  0  0
  4 11  1  0  0  0  0
  4  5  2  0  0  0  0
  5  6  1  0  0  0  0
  5  7  1  0  0  0  0
  7  8  2  0  0  0  0
  8  9  1  0  0  0  0
  9 10  2  0  0  0  0
  9 11  1  0  0  0  0
  8 12  1  0  0  0  0
 12 13  2  0  0  0  0
 12 14  1  0  0  0  0
 14 15  1  0  0  0  0
 15 20  2  0  0  0  0
 15 16  1  0  0  0  0
 16 17  2  0  0  0  0
 17 18  1  0  0  0  0
 18 23  1  0  0  0  0
 18 19  2  0  0  0  0
 19 20  1  0  0  0  0
 19 21  1  0  0  0  0
 21 22  1  0  0  0  0
 22 23  2  0  0  0  0
  1 24  1  0  0  0  0
  2 25  1  0  0  0  0
  3 26  1  0  0  0  0
  6 27  1  0  0  0  0
  7 28  1  0  0  0  0
 14 29  1  0  0  0  0
 16 30  1  0  0  0  0
 17 31  1  0  0  0  0
 20 32  1  0  0  0  0
 22 33  1  0  0  0  0
M  END
$$$$
