thieno[2,3-b]pyridine-2-carboxylic acid
  -OEChem-10071509473D

 17 18  0     0  0  0  0  0  0999 V2000
    2.1349   -0.2824   -0.0332 C   0  0  0  0  0  0  0  0  0  0  0  0
    0.9716    0.4797   -0.0722 C   0  0  0  0  0  0  0  0  0  0  0  0
    1.0807    1.8788   -0.2062 C   0  0  0  0  0  0  0  0  0  0  0  0
    0.1025    2.9220   -0.2763 C   0  0  0  0  0  0  0  0  0  0  0  0
    0.6691    4.1706   -0.4090 C   0  0  0  0  0  0  0  0  0  0  0  0
    2.3769    4.0997   -0.4501 S   0  0  0  0  0  0  0  0  0  0  0  0
    2.3668    2.4019   -0.2910 C   0  0  0  0  0  0  0  0  0  0  0  0
    3.5216    1.7043   -0.2578 N   0  0  0  0  0  0  0  0  0  0  0  0
    3.3507    0.3712   -0.1283 C   0  0  0  0  0  0  0  0  0  0  0  0
    0.0234    5.4392   -0.5095 C   0  0  0  0  0  0  0  0  0  0  0  0
    0.5844    6.5514   -0.6293 O   0  0  0  0  0  0  0  0  0  0  0  0
   -1.3457    5.3621   -0.4653 O   0  0  0  0  0  0  0  0  0  0  0  0
    2.0873   -1.3609    0.0687 H   0  0  0  0  0  0  0  0  0  0  0  0
   -0.0001    0.0000   -0.0004 H   0  0  0  0  0  0  0  0  0  0  0  0
   -0.9673    2.7563   -0.2299 H   0  0  0  0  0  0  0  0  0  0  0  0
    4.2750   -0.1997   -0.1016 H   0  0  0  0  0  0  0  0  0  0  0  0
   -1.7992    6.2292   -0.5345 H   0  0  0  0  0  0  0  0  0  0  0  0
  1  9  2  0  0  0  0
  1  2  1  0  0  0  0
  2  3  2  0  0  0  0
  3  7  1  0  0  0  0
  3  4  1  0  0  0  0
  4  5  2  0  0  0  0
  5  6  1  0  0  0  0
  6  7  1  0  0  0  0
  7  8  2  0  0  0  0
  8  9  1  0  0  0  0
  5 10  1  0  0  0  0
 10 11  2  0  0  0  0
 10 12  1  0  0  0  0
  1 13  1  0  0  0  0
  2 14  1  0  0  0  0
  4 15  1  0  0  0  0
  9 16  1  0  0  0  0
 12 17  1  0  0  0  0
M  END
$$$$
