2-(4-fluorophenyl)sulfanylacetic acid
  -OEChem-10071509503D

 19 19  0     0  0  0  0  0  0999 V2000
    1.8851   -1.0363   -0.1124 C   0  0  0  0  0  0  0  0  0  0  0  0
    2.9210   -1.6309    0.6081 C   0  0  0  0  0  0  0  0  0  0  0  0
    2.8783   -1.6520    2.0022 C   0  0  0  0  0  0  0  0  0  0  0  0
    1.7997   -1.0786    2.6757 C   0  0  0  0  0  0  0  0  0  0  0  0
    0.7638   -0.4841    1.9551 C   0  0  0  0  0  0  0  0  0  0  0  0
    0.8066   -0.4630    0.5610 C   0  0  0  0  0  0  0  0  0  0  0  0
   -0.1887    0.1067   -0.1311 F   0  0  0  0  0  0  0  0  0  0  0  0
    4.2024   -2.4108    2.9229 S   0  0  0  0  0  0  0  0  0  0  0  0
    5.2530   -2.9455    1.5545 C   0  0  0  0  0  0  0  0  0  0  0  0
    6.4702   -3.6334    2.1012 C   0  0  0  0  0  0  0  0  0  0  0  0
    6.6882   -3.7917    3.2956 O   0  0  0  0  0  0  0  0  0  0  0  0
    7.3036   -4.0776    1.1265 O   0  0  0  0  0  0  0  0  0  0  0  0
    1.9170   -1.0205   -1.1978 H   0  0  0  0  0  0  0  0  0  0  0  0
    3.7526   -2.0737    0.0652 H   0  0  0  0  0  0  0  0  0  0  0  0
    1.7477   -1.0869    3.7616 H   0  0  0  0  0  0  0  0  0  0  0  0
   -0.0766   -0.0382    2.4785 H   0  0  0  0  0  0  0  0  0  0  0  0
    5.5682   -2.0775    0.9681 H   0  0  0  0  0  0  0  0  0  0  0  0
    4.7088   -3.6154    0.8831 H   0  0  0  0  0  0  0  0  0  0  0  0
    7.0086   -3.8838    0.2109 H   0  0  0  0  0  0  0  0  0  0  0  0
  1  6  2  0  0  0  0
  1  2  1  0  0  0  0
  2  3  2  0  0  0  0
  3  4  1  0  0  0  0
  4  5  2  0  0  0  0
  5  6  1  0  0  0  0
  6  7  1  0  0  0  0
  3  8  1  0  0  0  0
  8  9  1  0  0  0  0
  9 10  1  0  0  0  0
 10 11  2  0  0  0  0
 10 12  1  0  0  0  0
  1 13  1  0  0  0  0
  2 14  1  0  0  0  0
  4 15  1  0  0  0  0
  5 16  1  0  0  0  0
  9 17  1  0  0  0  0
  9 18  1  0  0  0  0
 12 19  1  0  0  0  0
M  END
$$$$
