methyl (1~{R},13~{R},15~{S},17~{R},18~{R},19~{S},20~{S})-6,18-dimethoxy-17-(3,4,
  -OEChem-10071509473D

 84 89  0     1  0  0  0  0  0999 V2000
   -2.3454    1.0363    6.6527 C   0  0  0  0  0  0  0  0  0  0  0  0
   -0.9238    1.0786    6.6927 O   0  0  0  0  0  0  0  0  0  0  0  0
   -0.2662    0.6959    5.5612 C   0  0  0  0  0  0  0  0  0  0  0  0
    1.1266    0.7148    5.5357 C   0  0  0  0  0  0  0  0  0  0  0  0
    1.8272    0.3269    4.3880 C   0  0  0  0  0  0  0  0  0  0  0  0
    1.1078   -0.0855    3.2486 C   0  0  0  0  0  0  0  0  0  0  0  0
   -0.2899   -0.0932    3.3021 C   0  0  0  0  0  0  0  0  0  0  0  0
   -1.0020    0.2906    4.4442 C   0  0  0  0  0  0  0  0  0  0  0  0
   -0.7491   -0.5318    2.0778 N   0  0  0  0  0  0  0  0  0  0  0  0
    0.3083   -0.7808    1.2495 C   0  0  0  0  0  0  0  0  0  0  0  0
    1.4718   -0.5334    1.9501 C   0  0  0  0  0  0  0  0  0  0  0  0
    2.8116   -0.7169    1.3232 C   0  0  0  0  0  0  0  0  0  0  0  0
    2.6924   -1.4599   -0.0309 C   0  0  0  0  0  0  0  0  0  0  0  0
    1.5343   -1.0565   -0.8667 N   0  0  1  0  0  0  0  0  0  0  0  0
    0.2494   -1.3073   -0.1564 C   0  0  2  0  0  0  0  0  0  0  0  0
    0.1454   -2.3984   -0.0643 H   0  0  0  0  0  0  0  0  0  0  0  0
   -0.9651   -0.8314   -0.9713 C   0  0  0  0  0  0  0  0  0  0  0  0
   -0.8288    0.6185   -1.4767 C   0  0  1  0  0  0  0  0  0  0  0  0
   -0.8134    1.2720   -0.5927 H   0  0  0  0  0  0  0  0  0  0  0  0
    0.5084    0.7878   -2.2251 C   0  0  1  0  0  0  0  0  0  0  0  0
    0.6515    1.8593   -2.4256 H   0  0  0  0  0  0  0  0  0  0  0  0
    1.6765    0.3291   -1.3396 C   0  0  0  0  0  0  0  0  0  0  0  0
    0.5013    0.0650   -3.5815 C   0  0  0  0  0  0  0  0  0  0  0  0
   -0.6683    0.5092   -4.4582 C   0  0  2  0  0  0  0  0  0  0  0  0
   -0.5141    1.5422   -4.7922 H   0  0  0  0  0  0  0  0  0  0  0  0
   -2.0167    0.3883   -3.7415 C   0  0  1  0  0  0  0  0  0  0  0  0
   -2.3008   -0.6749   -3.6459 H   0  0  0  0  0  0  0  0  0  0  0  0
   -1.9965    1.0801   -2.3732 C   0  0  1  0  0  0  0  0  0  0  0  0
   -1.9049    2.1638   -2.5330 H   0  0  0  0  0  0  0  0  0  0  0  0
   -3.3094    0.8963   -1.6667 C   0  0  0  0  0  0  0  0  0  0  0  0
   -4.2339    0.2320   -2.1092 O   0  0  0  0  0  0  0  0  0  0  0  0
   -3.2873    1.5777   -0.4875 O   0  0  0  0  0  0  0  0  0  0  0  0
   -4.4838    1.4885    0.2926 C   0  0  0  0  0  0  0  0  0  0  0  0
   -3.0186    0.9990   -4.5621 O   0  0  0  0  0  0  0  0  0  0  0  0
   -3.4280    0.1275   -5.6021 C   0  0  0  0  0  0  0  0  0  0  0  0
   -0.7050   -0.3049   -5.6301 O   0  0  0  0  0  0  0  0  0  0  0  0
    0.0328    0.1377   -6.6824 C   0  0  0  0  0  0  0  0  0  0  0  0
    0.7114    1.1526   -6.7110 O   0  0  0  0  0  0  0  0  0  0  0  0
   -0.0906   -0.7921   -7.8334 C   0  0  0  0  0  0  0  0  0  0  0  0
    0.0176   -0.3067   -9.1366 C   0  0  0  0  0  0  0  0  0  0  0  0
   -0.0954   -1.1806  -10.2179 C   0  0  0  0  0  0  0  0  0  0  0  0
   -0.3168   -2.5398   -9.9960 C   0  0  0  0  0  0  0  0  0  0  0  0
   -0.4251   -3.0251   -8.6928 C   0  0  0  0  0  0  0  0  0  0  0  0
   -0.3120   -2.1512   -7.6115 C   0  0  0  0  0  0  0  0  0  0  0  0
   -0.6392   -4.3508   -8.4632 O   0  0  0  0  0  0  0  0  0  0  0  0
   -0.7377   -4.7651   -7.1021 C   0  0  0  0  0  0  0  0  0  0  0  0
   -0.4291   -3.3938  -11.0531 O   0  0  0  0  0  0  0  0  0  0  0  0
    0.7719   -3.9986  -11.5265 C   0  0  0  0  0  0  0  0  0  0  0  0
    0.0143   -0.6943  -11.4858 O   0  0  0  0  0  0  0  0  0  0  0  0
   -1.1879   -0.2640  -12.1211 C   0  0  0  0  0  0  0  0  0  0  0  0
   -2.7476    1.3645    7.6142 H   0  0  0  0  0  0  0  0  0  0  0  0
   -2.6745    0.0167    6.4369 H   0  0  0  0  0  0  0  0  0  0  0  0
   -2.6989    1.7056    5.8648 H   0  0  0  0  0  0  0  0  0  0  0  0
    1.6832    1.0329    6.4139 H   0  0  0  0  0  0  0  0  0  0  0  0
    2.9133    0.3465    4.3829 H   0  0  0  0  0  0  0  0  0  0  0  0
   -2.0871    0.2736    4.4608 H   0  0  0  0  0  0  0  0  0  0  0  0
   -1.7242   -0.6474    1.8392 H   0  0  0  0  0  0  0  0  0  0  0  0
    3.2696    0.2672    1.1677 H   0  0  0  0  0  0  0  0  0  0  0  0
    3.4695   -1.2835    1.9915 H   0  0  0  0  0  0  0  0  0  0  0  0
    3.6248   -1.3420   -0.5968 H   0  0  0  0  0  0  0  0  0  0  0  0
    2.6060   -2.5376    0.1643 H   0  0  0  0  0  0  0  0  0  0  0  0
   -1.0881   -1.5095   -1.8250 H   0  0  0  0  0  0  0  0  0  0  0  0
   -1.8804   -0.9402   -0.3784 H   0  0  0  0  0  0  0  0  0  0  0  0
    2.6070    0.4206   -1.9144 H   0  0  0  0  0  0  0  0  0  0  0  0
    1.7600    1.0313   -0.5010 H   0  0  0  0  0  0  0  0  0  0  0  0
    1.4404    0.2619   -4.1148 H   0  0  0  0  0  0  0  0  0  0  0  0
    0.4709   -1.0246   -3.4555 H   0  0  0  0  0  0  0  0  0  0  0  0
   -4.3510    2.0669    1.2041 H   0  0  0  0  0  0  0  0  0  0  0  0
   -4.6744    0.4424    0.5225 H   0  0  0  0  0  0  0  0  0  0  0  0
   -5.3034    1.8979   -0.2937 H   0  0  0  0  0  0  0  0  0  0  0  0
   -4.1907    0.6196   -6.2098 H   0  0  0  0  0  0  0  0  0  0  0  0
   -3.8275   -0.7926   -5.1696 H   0  0  0  0  0  0  0  0  0  0  0  0
   -2.5636   -0.1096   -6.2262 H   0  0  0  0  0  0  0  0  0  0  0  0
    0.1908    0.7522   -9.3136 H   0  0  0  0  0  0  0  0  0  0  0  0
   -0.3962   -2.5341   -6.5971 H   0  0  0  0  0  0  0  0  0  0  0  0
   -0.9076   -5.8406   -7.0701 H   0  0  0  0  0  0  0  0  0  0  0  0
   -1.5617   -4.2329   -6.6279 H   0  0  0  0  0  0  0  0  0  0  0  0
    0.1976   -4.5231   -6.5991 H   0  0  0  0  0  0  0  0  0  0  0  0
    0.5342   -4.6508  -12.3662 H   0  0  0  0  0  0  0  0  0  0  0  0
    1.2262   -4.5683  -10.7163 H   0  0  0  0  0  0  0  0  0  0  0  0
    1.4510   -3.2110  -11.8509 H   0  0  0  0  0  0  0  0  0  0  0  0
   -0.9510    0.0972  -13.1211 H   0  0  0  0  0  0  0  0  0  0  0  0
   -1.6404    0.5278  -11.5251 H   0  0  0  0  0  0  0  0  0  0  0  0
   -1.8671   -1.1131  -12.1857 H   0  0  0  0  0  0  0  0  0  0  0  0
  1  2  1  0  0  0  0
  2  3  1  0  0  0  0
  3  8  2  0  0  0  0
  3  4  1  0  0  0  0
  4  5  2  0  0  0  0
  5  6  1  0  0  0  0
  6 11  1  0  0  0  0
  6  7  2  0  0  0  0
  7  8  1  0  0  0  0
  7  9  1  0  0  0  0
  9 10  1  0  0  0  0
 10 15  1  0  0  0  0
 10 11  2  0  0  0  0
 11 12  1  0  0  0  0
 12 13  1  0  0  0  0
 13 14  1  0  0  0  0
 14 22  1  0  0  0  0
 14 15  1  0  0  0  0
 15 16  1  0  0  0  0
 15 17  1  0  0  0  0
 17 18  1  0  0  0  0
 18 19  1  0  0  0  0
 18 28  1  0  0  0  0
 18 20  1  0  0  0  0
 20 21  1  0  0  0  0
 20 22  1  0  0  0  0
 20 23  1  0  0  0  0
 23 24  1  0  0  0  0
 24 25  1  0  0  0  0
 24 26  1  0  0  0  0
 26 27  1  0  0  0  0
 26 28  1  0  0  0  0
 28 29  1  0  0  0  0
 28 30  1  0  0  0  0
 30 31  2  0  0  0  0
 30 32  1  0  0  0  0
 32 33  1  0  0  0  0
 26 34  1  0  0  0  0
 34 35  1  0  0  0  0
 24 36  1  0  0  0  0
 36 37  1  0  0  0  0
 37 38  2  0  0  0  0
 37 39  1  0  0  0  0
 39 44  2  0  0  0  0
 39 40  1  0  0  0  0
 40 41  2  0  0  0  0
 41 42  1  0  0  0  0
 42 43  2  0  0  0  0
 43 44  1  0  0  0  0
 43 45  1  0  0  0  0
 45 46  1  0  0  0  0
 42 47  1  0  0  0  0
 47 48  1  0  0  0  0
 41 49  1  0  0  0  0
 49 50  1  0  0  0  0
  1 51  1  0  0  0  0
  1 52  1  0  0  0  0
  1 53  1  0  0  0  0
  4 54  1  0  0  0  0
  5 55  1  0  0  0  0
  8 56  1  0  0  0  0
  9 57  1  0  0  0  0
 12 58  1  0  0  0  0
 12 59  1  0  0  0  0
 13 60  1  0  0  0  0
 13 61  1  0  0  0  0
 17 62  1  0  0  0  0
 17 63  1  0  0  0  0
 22 64  1  0  0  0  0
 22 65  1  0  0  0  0
 23 66  1  0  0  0  0
 23 67  1  0  0  0  0
 33 68  1  0  0  0  0
 33 69  1  0  0  0  0
 33 70  1  0  0  0  0
 35 71  1  0  0  0  0
 35 72  1  0  0  0  0
 35 73  1  0  0  0  0
 40 74  1  0  0  0  0
 44 75  1  0  0  0  0
 46 76  1  0  0  0  0
 46 77  1  0  0  0  0
 46 78  1  0  0  0  0
 48 79  1  0  0  0  0
 48 80  1  0  0  0  0
 48 81  1  0  0  0  0
 50 82  1  0  0  0  0
 50 83  1  0  0  0  0
 50 84  1  0  0  0  0
M  END
$$$$
