(2~{S})-2-methyl-2-(2-methylpyrimidin-4-yl)morpholine
  -OEChem-10071509503D

 29 30  0     1  0  0  0  0  0999 V2000
   -4.1161   -3.7787   -0.2053 C   0  0  0  0  0  0  0  0  0  0  0  0
   -2.8227   -3.3471   -0.8087 C   0  0  0  0  0  0  0  0  0  0  0  0
   -2.4338   -3.9938   -1.9241 N   0  0  0  0  0  0  0  0  0  0  0  0
   -1.2603   -3.5775   -2.4435 C   0  0  0  0  0  0  0  0  0  0  0  0
   -0.4943   -2.5686   -1.8961 C   0  0  0  0  0  0  0  0  0  0  0  0
   -1.0031   -1.9858   -0.7535 C   0  0  0  0  0  0  0  0  0  0  0  0
   -2.1686   -2.3515   -0.1806 N   0  0  0  0  0  0  0  0  0  0  0  0
   -0.2230   -0.8525   -0.0701 C   0  0  2  0  0  0  0  0  0  0  0  0
   -1.1388    0.1811    0.6337 C   0  0  0  0  0  0  0  0  0  0  0  0
   -0.3961    1.3571    1.0979 N   0  0  0  0  0  0  0  0  0  0  0  0
    0.2895    1.9870   -0.0272 C   0  0  0  0  0  0  0  0  0  0  0  0
    1.2177    0.9852   -0.6936 C   0  0  0  0  0  0  0  0  0  0  0  0
    0.4987   -0.1708   -1.1182 O   0  0  0  0  0  0  0  0  0  0  0  0
    0.7551   -1.5012    0.9310 C   0  0  0  0  0  0  0  0  0  0  0  0
   -4.9398   -3.1963   -0.6293 H   0  0  0  0  0  0  0  0  0  0  0  0
   -4.3001   -4.8415   -0.3939 H   0  0  0  0  0  0  0  0  0  0  0  0
   -4.1063   -3.6396    0.8809 H   0  0  0  0  0  0  0  0  0  0  0  0
   -0.9421   -4.0951   -3.3426 H   0  0  0  0  0  0  0  0  0  0  0  0
    0.4430   -2.2618   -2.3421 H   0  0  0  0  0  0  0  0  0  0  0  0
   -1.9286    0.5180   -0.0520 H   0  0  0  0  0  0  0  0  0  0  0  0
   -1.6441   -0.2843    1.4887 H   0  0  0  0  0  0  0  0  0  0  0  0
   -1.0452    2.0230    1.5158 H   0  0  0  0  0  0  0  0  0  0  0  0
   -0.4500    2.3566   -0.7478 H   0  0  0  0  0  0  0  0  0  0  0  0
    0.8651    2.8474    0.3289 H   0  0  0  0  0  0  0  0  0  0  0  0
    1.6673    1.4365   -1.5843 H   0  0  0  0  0  0  0  0  0  0  0  0
    2.0418    0.6919   -0.0343 H   0  0  0  0  0  0  0  0  0  0  0  0
    1.3283   -0.7275    1.4372 H   0  0  0  0  0  0  0  0  0  0  0  0
    1.4364   -2.1634    0.4010 H   0  0  0  0  0  0  0  0  0  0  0  0
    0.1978   -2.0752    1.6684 H   0  0  0  0  0  0  0  0  0  0  0  0
  1  2  1  0  0  0  0
  2  7  2  0  0  0  0
  2  3  1  0  0  0  0
  3  4  2  0  0  0  0
  4  5  1  0  0  0  0
  5  6  2  0  0  0  0
  6  7  1  0  0  0  0
  6  8  1  0  0  0  0
  8 13  1  0  0  0  0
  8  9  1  0  0  0  0
  9 10  1  0  0  0  0
 10 11  1  0  0  0  0
 11 12  1  0  0  0  0
 12 13  1  0  0  0  0
  8 14  1  0  0  0  0
  1 15  1  0  0  0  0
  1 16  1  0  0  0  0
  1 17  1  0  0  0  0
  4 18  1  0  0  0  0
  5 19  1  0  0  0  0
  9 20  1  0  0  0  0
  9 21  1  0  0  0  0
 10 22  1  0  0  0  0
 11 23  1  0  0  0  0
 11 24  1  0  0  0  0
 12 25  1  0  0  0  0
 12 26  1  0  0  0  0
 14 27  1  0  0  0  0
 14 28  1  0  0  0  0
 14 29  1  0  0  0  0
M  END
$$$$
