1-methylsulfonylpiperazine
  -OEChem-10071509503D

 22 22  0     0  0  0  0  0  0999 V2000
   -4.3460    0.1025    2.9096 C   0  0  0  0  0  0  0  0  0  0  0  0
   -2.6624   -0.2377    3.3598 S   0  0  0  0  0  0  0  0  0  0  0  0
   -2.0870    0.9864    3.8807 O   0  0  0  0  0  0  0  0  0  0  0  0
   -2.6492   -1.4645    4.1315 O   0  0  0  0  0  0  0  0  0  0  0  0
   -2.0113   -0.5459    1.8059 N   0  0  0  0  0  0  0  0  0  0  0  0
   -1.8445    0.6510    0.9316 C   0  0  0  0  0  0  0  0  0  0  0  0
   -1.0205    0.2735   -0.2960 C   0  0  0  0  0  0  0  0  0  0  0  0
   -1.6380   -0.8328   -1.0290 N   0  0  0  0  0  0  0  0  0  0  0  0
   -1.7893   -2.0059   -0.1665 C   0  0  0  0  0  0  0  0  0  0  0  0
   -2.6312   -1.6819    1.0642 C   0  0  0  0  0  0  0  0  0  0  0  0
   -4.7890   -0.8135    2.5157 H   0  0  0  0  0  0  0  0  0  0  0  0
   -4.8807    0.4332    3.8012 H   0  0  0  0  0  0  0  0  0  0  0  0
   -4.3477    0.8856    2.1499 H   0  0  0  0  0  0  0  0  0  0  0  0
   -2.8297    1.0027    0.6064 H   0  0  0  0  0  0  0  0  0  0  0  0
   -1.3571    1.4551    1.4957 H   0  0  0  0  0  0  0  0  0  0  0  0
   -0.9059    1.1404   -0.9587 H   0  0  0  0  0  0  0  0  0  0  0  0
   -0.0159   -0.0261    0.0210 H   0  0  0  0  0  0  0  0  0  0  0  0
   -1.0536   -1.0754   -1.8284 H   0  0  0  0  0  0  0  0  0  0  0  0
   -2.2436   -2.8283   -0.7329 H   0  0  0  0  0  0  0  0  0  0  0  0
   -0.7973   -2.3427    0.1532 H   0  0  0  0  0  0  0  0  0  0  0  0
   -3.6398   -1.3989    0.7438 H   0  0  0  0  0  0  0  0  0  0  0  0
   -2.7080   -2.5542    1.7241 H   0  0  0  0  0  0  0  0  0  0  0  0
  1  2  1  0  0  0  0
  2  3  2  0  0  0  0
  2  4  2  0  0  0  0
  2  5  1  0  0  0  0
  5 10  1  0  0  0  0
  5  6  1  0  0  0  0
  6  7  1  0  0  0  0
  7  8  1  0  0  0  0
  8  9  1  0  0  0  0
  9 10  1  0  0  0  0
  1 11  1  0  0  0  0
  1 12  1  0  0  0  0
  1 13  1  0  0  0  0
  6 14  1  0  0  0  0
  6 15  1  0  0  0  0
  7 16  1  0  0  0  0
  7 17  1  0  0  0  0
  8 18  1  0  0  0  0
  9 19  1  0  0  0  0
  9 20  1  0  0  0  0
 10 21  1  0  0  0  0
 10 22  1  0  0  0  0
M  END
$$$$
