2-[(2-chloroanilino)methyl]-5,6-dimethyl-4~{H}-[1,2,4]triazolo[1,5-a]pyrimidin-7
  -OEChem-10071509503D

 35 37  0     0  0  0  0  0  0999 V2000
   -2.6296    1.2847   -0.8722 C   0  0  0  0  0  0  0  0  0  0  0  0
   -1.4762    0.5059   -0.3142 C   0  0  0  0  0  0  0  0  0  0  0  0
   -1.5331   -0.4811    0.6157 C   0  0  0  0  0  0  0  0  0  0  0  0
   -0.3877   -1.1130    1.0900 N   0  0  0  0  0  0  0  0  0  0  0  0
    0.8449   -0.7888    0.6542 C   0  0  0  0  0  0  0  0  0  0  0  0
    2.0466   -1.2313    0.9445 N   0  0  0  0  0  0  0  0  0  0  0  0
    2.8434   -0.4682    0.1366 C   0  0  0  0  0  0  0  0  0  0  0  0
    2.2136    0.4201   -0.6373 N   0  0  0  0  0  0  0  0  0  0  0  0
    0.9325    0.2001   -0.2907 N   0  0  0  0  0  0  0  0  0  0  0  0
   -0.1256    0.9068   -0.8446 C   0  0  0  0  0  0  0  0  0  0  0  0
    0.0912    1.7643   -1.6848 O   0  0  0  0  0  0  0  0  0  0  0  0
    4.3036   -0.6154    0.1191 C   0  0  0  0  0  0  0  0  0  0  0  0
    4.9758    0.2407    1.0772 N   0  0  0  0  0  0  0  0  0  0  0  0
    6.3481    0.2734    1.2396 C   0  0  0  0  0  0  0  0  0  0  0  0
    7.1362   -0.5587    0.4445 C   0  0  0  0  0  0  0  0  0  0  0  0
    8.5239   -0.5486    0.5859 C   0  0  0  0  0  0  0  0  0  0  0  0
    9.1234    0.2934    1.5225 C   0  0  0  0  0  0  0  0  0  0  0  0
    8.3352    1.1254    2.3176 C   0  0  0  0  0  0  0  0  0  0  0  0
    6.9476    1.1154    2.1762 C   0  0  0  0  0  0  0  0  0  0  0  0
    6.0094    2.1614    3.1811 Cl  0  0  0  0  0  0  0  0  0  0  0  0
   -2.8198   -0.9985    1.2037 C   0  0  0  0  0  0  0  0  0  0  0  0
   -3.0162    0.7981   -1.7716 H   0  0  0  0  0  0  0  0  0  0  0  0
   -2.3137    2.2995   -1.1296 H   0  0  0  0  0  0  0  0  0  0  0  0
   -3.4344    1.3518   -0.1349 H   0  0  0  0  0  0  0  0  0  0  0  0
   -0.5276   -1.8370    1.7877 H   0  0  0  0  0  0  0  0  0  0  0  0
    4.6239   -1.6510    0.3474 H   0  0  0  0  0  0  0  0  0  0  0  0
    4.7444   -0.3794   -0.8693 H   0  0  0  0  0  0  0  0  0  0  0  0
    4.4038    0.8438    1.6526 H   0  0  0  0  0  0  0  0  0  0  0  0
    6.6808   -1.2196   -0.2887 H   0  0  0  0  0  0  0  0  0  0  0  0
    9.1376   -1.1968   -0.0328 H   0  0  0  0  0  0  0  0  0  0  0  0
   10.2038    0.3006    1.6330 H   0  0  0  0  0  0  0  0  0  0  0  0
    8.8182    1.7751    3.0432 H   0  0  0  0  0  0  0  0  0  0  0  0
   -3.1840   -1.8210    0.5961 H   0  0  0  0  0  0  0  0  0  0  0  0
   -3.5527   -0.1975    1.2192 H   0  0  0  0  0  0  0  0  0  0  0  0
   -2.6363   -1.3407    2.2177 H   0  0  0  0  0  0  0  0  0  0  0  0
  1  2  1  0  0  0  0
  2 10  1  0  0  0  0
  2  3  2  0  0  0  0
  3  4  1  0  0  0  0
  4  5  1  0  0  0  0
  5  9  1  0  0  0  0
  5  6  2  0  0  0  0
  6  7  1  0  0  0  0
  7  8  2  0  0  0  0
  8  9  1  0  0  0  0
  9 10  1  0  0  0  0
 10 11  2  0  0  0  0
  7 12  1  0  0  0  0
 12 13  1  0  0  0  0
 13 14  1  0  0  0  0
 14 19  2  0  0  0  0
 14 15  1  0  0  0  0
 15 16  2  0  0  0  0
 16 17  1  0  0  0  0
 17 18  2  0  0  0  0
 18 19  1  0  0  0  0
 19 20  1  0  0  0  0
  3 21  1  0  0  0  0
  1 22  1  0  0  0  0
  1 23  1  0  0  0  0
  1 24  1  0  0  0  0
  4 25  1  0  0  0  0
 12 26  1  0  0  0  0
 12 27  1  0  0  0  0
 13 28  1  0  0  0  0
 15 29  1  0  0  0  0
 16 30  1  0  0  0  0
 17 31  1  0  0  0  0
 18 32  1  0  0  0  0
 21 33  1  0  0  0  0
 21 34  1  0  0  0  0
 21 35  1  0  0  0  0
M  END
$$$$
