3-(5,6-dihydrodibenzo[1,2-~{d}:2',1'-~{f}][7]annulen-11-ylidene)-~{N},~{N}-dimet
  -OEChem-10071509503D

 44 46  0     0  0  0  0  0  0999 V2000
    7.7567    5.1892    1.6875 C   0  0  0  0  0  0  0  0  0  0  0  0
    7.5678    4.2523    0.5806 N   0  0  0  0  0  0  0  0  0  0  0  0
    7.7285    4.9370   -0.7016 C   0  0  0  0  0  0  0  0  0  0  0  0
    6.2722    3.6338    0.6612 C   0  0  0  0  0  0  0  0  0  0  0  0
    6.1997    2.3355   -0.1368 C   0  0  0  0  0  0  0  0  0  0  0  0
    4.8474    1.6884   -0.0536 C   0  0  0  0  0  0  0  0  0  0  0  0
    4.6423    0.3588   -0.1305 C   0  0  0  0  0  0  0  0  0  0  0  0
    5.8487   -0.4922   -0.2018 C   0  0  0  0  0  0  0  0  0  0  0  0
    6.7094   -0.4296   -1.3084 C   0  0  0  0  0  0  0  0  0  0  0  0
    7.8448   -1.2373   -1.3643 C   0  0  0  0  0  0  0  0  0  0  0  0
    8.1284   -2.1133   -0.3198 C   0  0  0  0  0  0  0  0  0  0  0  0
    7.2761   -2.1855    0.7821 C   0  0  0  0  0  0  0  0  0  0  0  0
    6.1313   -1.3791    0.8503 C   0  0  0  0  0  0  0  0  0  0  0  0
    5.2055   -1.4654    2.0365 C   0  0  0  0  0  0  0  0  0  0  0  0
    3.8527   -2.0712    1.6602 C   0  0  0  0  0  0  0  0  0  0  0  0
    2.9078   -1.2747    0.7778 C   0  0  0  0  0  0  0  0  0  0  0  0
    3.2572   -0.1741   -0.0358 C   0  0  0  0  0  0  0  0  0  0  0  0
    2.2585    0.4185   -0.8401 C   0  0  0  0  0  0  0  0  0  0  0  0
    0.9427   -0.0433   -0.8304 C   0  0  0  0  0  0  0  0  0  0  0  0
    0.5971   -1.1183   -0.0266 C   0  0  0  0  0  0  0  0  0  0  0  0
    1.5701   -1.7294    0.7614 C   0  0  0  0  0  0  0  0  0  0  0  0
    7.6354    4.6716    2.6426 H   0  0  0  0  0  0  0  0  0  0  0  0
    7.0216    5.9965    1.6290 H   0  0  0  0  0  0  0  0  0  0  0  0
    8.7589    5.6242    1.6478 H   0  0  0  0  0  0  0  0  0  0  0  0
    7.5834    4.2200   -1.5025 H   0  0  0  0  0  0  0  0  0  0  0  0
    8.7276    5.3565   -0.7549 H   0  0  0  0  0  0  0  0  0  0  0  0
    6.9903    5.7289   -0.7736 H   0  0  0  0  0  0  0  0  0  0  0  0
    6.0795    3.4331    1.7200 H   0  0  0  0  0  0  0  0  0  0  0  0
    5.5326    4.3628    0.3137 H   0  0  0  0  0  0  0  0  0  0  0  0
    6.4768    2.5255   -1.1811 H   0  0  0  0  0  0  0  0  0  0  0  0
    6.9370    1.6302    0.2648 H   0  0  0  0  0  0  0  0  0  0  0  0
    3.9893    2.3405    0.0877 H   0  0  0  0  0  0  0  0  0  0  0  0
    6.5252    0.2468   -2.1318 H   0  0  0  0  0  0  0  0  0  0  0  0
    8.5137   -1.1780   -2.2186 H   0  0  0  0  0  0  0  0  0  0  0  0
    9.0200   -2.7346   -0.3597 H   0  0  0  0  0  0  0  0  0  0  0  0
    7.5190   -2.8717    1.5817 H   0  0  0  0  0  0  0  0  0  0  0  0
    5.6470   -2.1185    2.7602 H   0  0  0  0  0  0  0  0  0  0  0  0
    5.0665   -0.4849    2.4342 H   0  0  0  0  0  0  0  0  0  0  0  0
    3.9942   -3.0959    1.2040 H   0  0  0  0  0  0  0  0  0  0  0  0
    3.3107   -2.3232    2.6172 H   0  0  0  0  0  0  0  0  0  0  0  0
    2.5114    1.2641   -1.4883 H   0  0  0  0  0  0  0  0  0  0  0  0
    0.1943    0.4403   -1.4500 H   0  0  0  0  0  0  0  0  0  0  0  0
   -0.4243   -1.4819   -0.0074 H   0  0  0  0  0  0  0  0  0  0  0  0
    1.2829   -2.5825    1.3841 H   0  0  0  0  0  0  0  0  0  0  0  0
  1  2  1  0  0  0  0
  2  3  1  0  0  0  0
  2  4  1  0  0  0  0
  4  5  1  0  0  0  0
  5  6  1  0  0  0  0
  6  7  2  3  0  0  0
  7 17  1  0  0  0  0
  7  8  1  0  0  0  0
  8 13  2  0  0  0  0
  8  9  1  0  0  0  0
  9 10  2  0  0  0  0
 10 11  1  0  0  0  0
 11 12  2  0  0  0  0
 12 13  1  0  0  0  0
 13 14  1  0  0  0  0
 14 15  1  0  0  0  0
 15 16  1  0  0  0  0
 16 21  2  0  0  0  0
 16 17  1  0  0  0  0
 17 18  2  0  0  0  0
 18 19  1  0  0  0  0
 19 20  2  0  0  0  0
 20 21  1  0  0  0  0
  1 22  1  0  0  0  0
  1 23  1  0  0  0  0
  1 24  1  0  0  0  0
  3 25  1  0  0  0  0
  3 26  1  0  0  0  0
  3 27  1  0  0  0  0
  4 28  1  0  0  0  0
  4 29  1  0  0  0  0
  5 30  1  0  0  0  0
  5 31  1  0  0  0  0
  6 32  1  0  0  0  0
  9 33  1  0  0  0  0
 10 34  1  0  0  0  0
 11 35  1  0  0  0  0
 12 36  1  0  0  0  0
 14 37  1  0  0  0  0
 14 38  1  0  0  0  0
 15 39  1  0  0  0  0
 15 40  1  0  0  0  0
 18 41  1  0  0  0  0
 19 42  1  0  0  0  0
 20 43  1  0  0  0  0
 21 44  1  0  0  0  0
M  END
$$$$
