5-methyl-[1,2,4]triazolo[4,3-a]pyrimidin-7-ol
  -OEChem-10071509473D

 17 18  0     0  0  0  0  0  0999 V2000
   -0.4478   -1.1670   -2.5295 C   0  0  0  0  0  0  0  0  0  0  0  0
   -0.5347   -0.6115   -1.1404 C   0  0  0  0  0  0  0  0  0  0  0  0
   -1.6818   -0.6141   -0.4391 C   0  0  0  0  0  0  0  0  0  0  0  0
   -1.5740   -0.0245    0.9132 C   0  0  0  0  0  0  0  0  0  0  0  0
   -0.5343    0.4831    1.4922 N   0  0  0  0  0  0  0  0  0  0  0  0
    0.6055    0.4645    0.7434 C   0  0  0  0  0  0  0  0  0  0  0  0
    0.6029   -0.0693   -0.5388 N   0  0  0  0  0  0  0  0  0  0  0  0
    1.8858    0.0730   -0.9893 C   0  0  0  0  0  0  0  0  0  0  0  0
    2.6263    0.6457   -0.0696 N   0  0  0  0  0  0  0  0  0  0  0  0
    1.8226    0.8923    1.0198 N   0  0  0  0  0  0  0  0  0  0  0  0
   -2.7703   -0.0721    1.5378 O   0  0  0  0  0  0  0  0  0  0  0  0
   -0.1893   -2.2288   -2.4980 H   0  0  0  0  0  0  0  0  0  0  0  0
    0.3165   -0.6361   -3.1039 H   0  0  0  0  0  0  0  0  0  0  0  0
   -1.4057   -1.0533   -3.0444 H   0  0  0  0  0  0  0  0  0  0  0  0
   -2.6200   -1.0078   -0.8059 H   0  0  0  0  0  0  0  0  0  0  0  0
    2.2191   -0.2473   -1.9664 H   0  0  0  0  0  0  0  0  0  0  0  0
   -2.7215    0.3114    2.4306 H   0  0  0  0  0  0  0  0  0  0  0  0
  1  2  1  0  0  0  0
  2  7  1  0  0  0  0
  2  3  2  0  0  0  0
  3  4  1  0  0  0  0
  4  5  2  0  0  0  0
  5  6  1  0  0  0  0
  6 10  2  0  0  0  0
  6  7  1  0  0  0  0
  7  8  1  0  0  0  0
  8  9  2  0  0  0  0
  9 10  1  0  0  0  0
  4 11  1  0  0  0  0
  1 12  1  0  0  0  0
  1 13  1  0  0  0  0
  1 14  1  0  0  0  0
  3 15  1  0  0  0  0
  8 16  1  0  0  0  0
 11 17  1  0  0  0  0
M  END
$$$$
