ethyl 3-amino-4,5,6-trimethyl-thieno[2,3-b]pyridine-2-carboxylate
  -OEChem-10071509513D

 34 35  0     0  0  0  0  0  0999 V2000
   -3.5384    6.2067   -0.4826 C   0  0  0  0  0  0  0  0  0  0  0  0
   -2.0612    6.5301   -0.5542 C   0  0  0  0  0  0  0  0  0  0  0  0
   -1.3124    5.3134   -0.4603 O   0  0  0  0  0  0  0  0  0  0  0  0
    0.0372    5.4482   -0.5105 C   0  0  0  0  0  0  0  0  0  0  0  0
    0.6565    6.4944   -0.6265 O   0  0  0  0  0  0  0  0  0  0  0  0
    0.6691    4.1706   -0.4090 C   0  0  0  0  0  0  0  0  0  0  0  0
    0.1025    2.9220   -0.2763 C   0  0  0  0  0  0  0  0  0  0  0  0
    1.0807    1.8788   -0.2062 C   0  0  0  0  0  0  0  0  0  0  0  0
    0.9716    0.4797   -0.0722 C   0  0  0  0  0  0  0  0  0  0  0  0
    2.1349   -0.2824   -0.0332 C   0  0  0  0  0  0  0  0  0  0  0  0
    3.3507    0.3712   -0.1283 C   0  0  0  0  0  0  0  0  0  0  0  0
    3.5216    1.7043   -0.2578 N   0  0  0  0  0  0  0  0  0  0  0  0
    2.3668    2.4019   -0.2910 C   0  0  0  0  0  0  0  0  0  0  0  0
    2.3769    4.0997   -0.4501 S   0  0  0  0  0  0  0  0  0  0  0  0
    4.6192   -0.4222   -0.0894 C   0  0  0  0  0  0  0  0  0  0  0  0
    2.0720   -1.7678    0.1078 C   0  0  0  0  0  0  0  0  0  0  0  0
   -0.3528   -0.2138    0.0297 C   0  0  0  0  0  0  0  0  0  0  0  0
   -1.2374    2.7203   -0.2197 N   0  0  0  0  0  0  0  0  0  0  0  0
   -4.1408    7.1168   -0.5517 H   0  0  0  0  0  0  0  0  0  0  0  0
   -3.8253    5.5303   -1.2944 H   0  0  0  0  0  0  0  0  0  0  0  0
   -3.7764    5.6960    0.4564 H   0  0  0  0  0  0  0  0  0  0  0  0
   -1.7716    7.1868    0.2715 H   0  0  0  0  0  0  0  0  0  0  0  0
   -1.8208    7.0196   -1.5027 H   0  0  0  0  0  0  0  0  0  0  0  0
    4.9099   -0.7178   -1.1030 H   0  0  0  0  0  0  0  0  0  0  0  0
    5.4340    0.1604    0.3549 H   0  0  0  0  0  0  0  0  0  0  0  0
    4.4996   -1.3251    0.5202 H   0  0  0  0  0  0  0  0  0  0  0  0
    2.0274   -2.2416   -0.8797 H   0  0  0  0  0  0  0  0  0  0  0  0
    2.9498   -2.1529    0.6411 H   0  0  0  0  0  0  0  0  0  0  0  0
    1.1893   -2.0743    0.6828 H   0  0  0  0  0  0  0  0  0  0  0  0
   -0.7127   -0.4831   -0.9682 H   0  0  0  0  0  0  0  0  0  0  0  0
   -0.2728   -1.1236    0.6342 H   0  0  0  0  0  0  0  0  0  0  0  0
   -1.0959    0.4304    0.5118 H   0  0  0  0  0  0  0  0  0  0  0  0
   -1.6420    1.7772   -0.1681 H   0  0  0  0  0  0  0  0  0  0  0  0
   -1.9065    3.4935   -0.3211 H   0  0  0  0  0  0  0  0  0  0  0  0
  1  2  1  0  0  0  0
  2  3  1  0  0  0  0
  3  4  1  0  0  0  0
  4  5  2  0  0  0  0
  4  6  1  0  0  0  0
  6 14  1  0  0  0  0
  6  7  2  0  0  0  0
  7  8  1  0  0  0  0
  8 13  2  0  0  0  0
  8  9  1  0  0  0  0
  9 10  2  0  0  0  0
 10 11  1  0  0  0  0
 11 12  2  0  0  0  0
 12 13  1  0  0  0  0
 13 14  1  0  0  0  0
 11 15  1  0  0  0  0
 10 16  1  0  0  0  0
  9 17  1  0  0  0  0
  7 18  1  0  0  0  0
  1 19  1  0  0  0  0
  1 20  1  0  0  0  0
  1 21  1  0  0  0  0
  2 22  1  0  0  0  0
  2 23  1  0  0  0  0
 15 24  1  0  0  0  0
 15 25  1  0  0  0  0
 15 26  1  0  0  0  0
 16 27  1  0  0  0  0
 16 28  1  0  0  0  0
 16 29  1  0  0  0  0
 17 30  1  0  0  0  0
 17 31  1  0  0  0  0
 17 32  1  0  0  0  0
 18 33  1  0  0  0  0
 18 34  1  0  0  0  0
M  END
$$$$
