4-[4-(4-chlorophenyl)-4-hydroxy-1-piperidyl]-1-(4-fluorophenyl)butan-1-one
  -OEChem-10071509473D

 49 51  0     0  0  0  0  0  0999 V2000
   -0.9665   -2.0229   -4.6568 C   0  0  0  0  0  0  0  0  0  0  0  0
   -0.7663   -3.3856   -4.4362 C   0  0  0  0  0  0  0  0  0  0  0  0
   -1.7531   -4.1422   -3.8042 C   0  0  0  0  0  0  0  0  0  0  0  0
   -2.9402   -3.5361   -3.3929 C   0  0  0  0  0  0  0  0  0  0  0  0
   -3.1404   -2.1733   -3.6135 C   0  0  0  0  0  0  0  0  0  0  0  0
   -2.1535   -1.4168   -4.2455 C   0  0  0  0  0  0  0  0  0  0  0  0
   -2.3665    0.0395   -4.4806 C   0  0  0  0  0  0  0  0  0  0  0  0
   -1.8359    0.5712   -5.4528 O   0  0  0  0  0  0  0  0  0  0  0  0
   -3.2552    0.8114   -3.5155 C   0  0  0  0  0  0  0  0  0  0  0  0
   -2.8596    2.2848   -3.3716 C   0  0  0  0  0  0  0  0  0  0  0  0
   -1.4369    2.4929   -2.8551 C   0  0  0  0  0  0  0  0  0  0  0  0
   -1.2260    1.9003   -1.5346 N   0  0  0  0  0  0  0  0  0  0  0  0
   -1.8305    2.7368   -0.4929 C   0  0  0  0  0  0  0  0  0  0  0  0
   -1.6672    2.1111    0.8983 C   0  0  0  0  0  0  0  0  0  0  0  0
   -0.1986    1.7791    1.2500 C   0  0  0  0  0  0  0  0  0  0  0  0
    0.4289    1.0086    0.0669 C   0  0  0  0  0  0  0  0  0  0  0  0
    0.2050    1.6969   -1.2846 C   0  0  0  0  0  0  0  0  0  0  0  0
   -0.1190    1.0647    2.6002 C   0  0  0  0  0  0  0  0  0  0  0  0
   -0.5906    1.6955    3.7515 C   0  0  0  0  0  0  0  0  0  0  0  0
   -0.5196    1.0438    4.9827 C   0  0  0  0  0  0  0  0  0  0  0  0
    0.0230   -0.2388    5.0626 C   0  0  0  0  0  0  0  0  0  0  0  0
    0.4946   -0.8695    3.9113 C   0  0  0  0  0  0  0  0  0  0  0  0
    0.4236   -0.2177    2.6801 C   0  0  0  0  0  0  0  0  0  0  0  0
    0.1121   -1.0403    6.5828 Cl  0  0  0  0  0  0  0  0  0  0  0  0
    0.5392    2.9987    1.4192 O   0  0  0  0  0  0  0  0  0  0  0  0
   -1.5607   -5.4506   -3.5917 F   0  0  0  0  0  0  0  0  0  0  0  0
   -0.1906   -1.4430   -5.1501 H   0  0  0  0  0  0  0  0  0  0  0  0
    0.1580   -3.8575   -4.7557 H   0  0  0  0  0  0  0  0  0  0  0  0
   -3.7085   -4.1253   -2.9005 H   0  0  0  0  0  0  0  0  0  0  0  0
   -4.0691   -1.7113   -3.2883 H   0  0  0  0  0  0  0  0  0  0  0  0
   -3.2371    0.3295   -2.5324 H   0  0  0  0  0  0  0  0  0  0  0  0
   -4.2778    0.7660   -3.9081 H   0  0  0  0  0  0  0  0  0  0  0  0
   -3.5644    2.7664   -2.6821 H   0  0  0  0  0  0  0  0  0  0  0  0
   -2.9640    2.7929   -4.3378 H   0  0  0  0  0  0  0  0  0  0  0  0
   -1.2294    3.5633   -2.7584 H   0  0  0  0  0  0  0  0  0  0  0  0
   -0.6938    2.0647   -3.5340 H   0  0  0  0  0  0  0  0  0  0  0  0
   -1.3903    3.7428   -0.4957 H   0  0  0  0  0  0  0  0  0  0  0  0
   -2.9037    2.8545   -0.6871 H   0  0  0  0  0  0  0  0  0  0  0  0
   -2.0812    2.8057    1.6409 H   0  0  0  0  0  0  0  0  0  0  0  0
   -2.2747    1.1966    0.9449 H   0  0  0  0  0  0  0  0  0  0  0  0
    1.5102    0.9012    0.2234 H   0  0  0  0  0  0  0  0  0  0  0  0
    0.0132   -0.0076    0.0214 H   0  0  0  0  0  0  0  0  0  0  0  0
    0.7501    2.6495   -1.3126 H   0  0  0  0  0  0  0  0  0  0  0  0
    0.6317    1.0562   -2.0661 H   0  0  0  0  0  0  0  0  0  0  0  0
   -1.0149    2.6945    3.6990 H   0  0  0  0  0  0  0  0  0  0  0  0
   -0.8915    1.5472    5.8713 H   0  0  0  0  0  0  0  0  0  0  0  0
    0.9196   -1.8690    3.9585 H   0  0  0  0  0  0  0  0  0  0  0  0
    0.7932   -0.7168    1.7882 H   0  0  0  0  0  0  0  0  0  0  0  0
    0.4835    3.4736    0.5758 H   0  0  0  0  0  0  0  0  0  0  0  0
  1  6  2  0  0  0  0
  1  2  1  0  0  0  0
  2  3  2  0  0  0  0
  3  4  1  0  0  0  0
  4  5  2  0  0  0  0
  5  6  1  0  0  0  0
  6  7  1  0  0  0  0
  7  8  2  0  0  0  0
  7  9  1  0  0  0  0
  9 10  1  0  0  0  0
 10 11  1  0  0  0  0
 11 12  1  0  0  0  0
 12 17  1  0  0  0  0
 12 13  1  0  0  0  0
 13 14  1  0  0  0  0
 14 15  1  0  0  0  0
 15 16  1  0  0  0  0
 16 17  1  0  0  0  0
 15 18  1  0  0  0  0
 18 23  2  0  0  0  0
 18 19  1  0  0  0  0
 19 20  2  0  0  0  0
 20 21  1  0  0  0  0
 21 22  2  0  0  0  0
 22 23  1  0  0  0  0
 21 24  1  0  0  0  0
 15 25  1  0  0  0  0
  3 26  1  0  0  0  0
  1 27  1  0  0  0  0
  2 28  1  0  0  0  0
  4 29  1  0  0  0  0
  5 30  1  0  0  0  0
  9 31  1  0  0  0  0
  9 32  1  0  0  0  0
 10 33  1  0  0  0  0
 10 34  1  0  0  0  0
 11 35  1  0  0  0  0
 11 36  1  0  0  0  0
 13 37  1  0  0  0  0
 13 38  1  0  0  0  0
 14 39  1  0  0  0  0
 14 40  1  0  0  0  0
 16 41  1  0  0  0  0
 16 42  1  0  0  0  0
 17 43  1  0  0  0  0
 17 44  1  0  0  0  0
 19 45  1  0  0  0  0
 20 46  1  0  0  0  0
 22 47  1  0  0  0  0
 23 48  1  0  0  0  0
 25 49  1  0  0  0  0
M  END
$$$$
