2-[(4-ethylanilino)methyl]-5,6-dimethyl-4~{H}-[1,2,4]triazolo[1,5-a]pyrimidin-7-
  -OEChem-10071509503D

 41 43  0     0  0  0  0  0  0999 V2000
   10.8679   -1.3676   -2.9115 C   0  0  0  0  0  0  0  0  0  0  0  0
   10.2096   -2.4685   -2.0942 C   0  0  0  0  0  0  0  0  0  0  0  0
    8.7750   -2.1706   -1.8160 C   0  0  0  0  0  0  0  0  0  0  0  0
    7.7886   -2.5988   -2.7044 C   0  0  0  0  0  0  0  0  0  0  0  0
    6.4469   -2.3199   -2.4443 C   0  0  0  0  0  0  0  0  0  0  0  0
    6.0916   -1.6127   -1.2957 C   0  0  0  0  0  0  0  0  0  0  0  0
    7.0781   -1.1844   -0.4073 C   0  0  0  0  0  0  0  0  0  0  0  0
    8.4198   -1.4634   -0.6675 C   0  0  0  0  0  0  0  0  0  0  0  0
    4.7586   -1.3360   -1.0368 N   0  0  0  0  0  0  0  0  0  0  0  0
    4.3037   -0.6147    0.1199 C   0  0  0  0  0  0  0  0  0  0  0  0
    2.8434   -0.4682    0.1366 C   0  0  0  0  0  0  0  0  0  0  0  0
    2.2145    0.6002   -0.4403 N   0  0  0  0  0  0  0  0  0  0  0  0
    0.9486    0.3433   -0.2039 C   0  0  0  0  0  0  0  0  0  0  0  0
   -0.1948    0.9914   -0.4985 N   0  0  0  0  0  0  0  0  0  0  0  0
   -1.4431    0.5006   -0.1285 C   0  0  0  0  0  0  0  0  0  0  0  0
   -1.5839   -0.6665    0.5498 C   0  0  0  0  0  0  0  0  0  0  0  0
   -0.3401   -1.4325    0.9138 C   0  0  0  0  0  0  0  0  0  0  0  0
   -0.2982   -2.4863    1.5269 O   0  0  0  0  0  0  0  0  0  0  0  0
    0.8375   -0.8351    0.4873 N   0  0  0  0  0  0  0  0  0  0  0  0
    2.0493   -1.3726    0.7166 N   0  0  0  0  0  0  0  0  0  0  0  0
   -2.8693   -1.3144    0.9690 C   0  0  0  0  0  0  0  0  0  0  0  0
   -2.6012    1.3781   -0.5252 C   0  0  0  0  0  0  0  0  0  0  0  0
   11.9206   -1.5956   -3.1103 H   0  0  0  0  0  0  0  0  0  0  0  0
   10.8232   -0.4170   -2.3708 H   0  0  0  0  0  0  0  0  0  0  0  0
   10.3653   -1.2336   -3.8753 H   0  0  0  0  0  0  0  0  0  0  0  0
   10.7493   -2.6010   -1.1487 H   0  0  0  0  0  0  0  0  0  0  0  0
   10.2918   -3.4242   -2.6260 H   0  0  0  0  0  0  0  0  0  0  0  0
    8.0564   -3.1508   -3.6013 H   0  0  0  0  0  0  0  0  0  0  0  0
    5.6866   -2.6579   -3.1436 H   0  0  0  0  0  0  0  0  0  0  0  0
    6.8126   -0.6333    0.4912 H   0  0  0  0  0  0  0  0  0  0  0  0
    9.1816   -1.1257    0.0299 H   0  0  0  0  0  0  0  0  0  0  0  0
    4.0643   -1.6617   -1.7000 H   0  0  0  0  0  0  0  0  0  0  0  0
    4.7901    0.3668    0.1182 H   0  0  0  0  0  0  0  0  0  0  0  0
    4.6551   -1.1503    1.0081 H   0  0  0  0  0  0  0  0  0  0  0  0
   -0.1879    1.8701   -1.0065 H   0  0  0  0  0  0  0  0  0  0  0  0
   -3.2123   -1.9836    0.1830 H   0  0  0  0  0  0  0  0  0  0  0  0
   -3.6211   -0.5487    1.1493 H   0  0  0  0  0  0  0  0  0  0  0  0
   -2.7097   -1.8798    1.8850 H   0  0  0  0  0  0  0  0  0  0  0  0
   -2.9453    1.0894   -1.5135 H   0  0  0  0  0  0  0  0  0  0  0  0
   -2.2771    2.4145   -0.5349 H   0  0  0  0  0  0  0  0  0  0  0  0
   -3.4040    1.2570    0.1958 H   0  0  0  0  0  0  0  0  0  0  0  0
  1  2  1  0  0  0  0
  2  3  1  0  0  0  0
  3  8  2  0  0  0  0
  3  4  1  0  0  0  0
  4  5  2  0  0  0  0
  5  6  1  0  0  0  0
  6  7  2  0  0  0  0
  7  8  1  0  0  0  0
  6  9  1  0  0  0  0
  9 10  1  0  0  0  0
 10 11  1  0  0  0  0
 11 20  2  0  0  0  0
 11 12  1  0  0  0  0
 12 13  2  0  0  0  0
 13 19  1  0  0  0  0
 13 14  1  0  0  0  0
 14 15  1  0  0  0  0
 15 16  2  0  0  0  0
 16 17  1  0  0  0  0
 17 18  2  0  0  0  0
 17 19  1  0  0  0  0
 19 20  1  0  0  0  0
 16 21  1  0  0  0  0
 15 22  1  0  0  0  0
  1 23  1  0  0  0  0
  1 24  1  0  0  0  0
  1 25  1  0  0  0  0
  2 26  1  0  0  0  0
  2 27  1  0  0  0  0
  4 28  1  0  0  0  0
  5 29  1  0  0  0  0
  7 30  1  0  0  0  0
  8 31  1  0  0  0  0
  9 32  1  0  0  0  0
 10 33  1  0  0  0  0
 10 34  1  0  0  0  0
 14 35  1  0  0  0  0
 21 36  1  0  0  0  0
 21 37  1  0  0  0  0
 21 38  1  0  0  0  0
 22 39  1  0  0  0  0
 22 40  1  0  0  0  0
 22 41  1  0  0  0  0
M  END
$$$$
