(2~{R})-2-(3-fluoro-4-phenyl-phenyl)propanoic acid
  -OEChem-10071509503D

 31 32  0     1  0  0  0  0  0999 V2000
    0.9745   -1.0772   -0.4101 C   0  0  0  0  0  0  0  0  0  0  0  0
    1.9323   -1.0136   -1.6027 C   0  0  2  0  0  0  0  0  0  0  0  0
    2.8873   -1.4556   -1.2873 H   0  0  0  0  0  0  0  0  0  0  0  0
    2.2108    0.3821   -2.0476 C   0  0  0  0  0  0  0  0  0  0  0  0
    3.5177    0.8697   -2.0340 C   0  0  0  0  0  0  0  0  0  0  0  0
    3.7795    2.1748   -2.4507 C   0  0  0  0  0  0  0  0  0  0  0  0
    2.7344    2.9925   -2.8808 C   0  0  0  0  0  0  0  0  0  0  0  0
    1.4276    2.5049   -2.8943 C   0  0  0  0  0  0  0  0  0  0  0  0
    1.1658    1.1997   -2.4777 C   0  0  0  0  0  0  0  0  0  0  0  0
    0.4121    3.2782   -3.3060 F   0  0  0  0  0  0  0  0  0  0  0  0
    3.0110    4.3456   -3.3126 C   0  0  0  0  0  0  0  0  0  0  0  0
    2.4198    5.4228   -2.6524 C   0  0  0  0  0  0  0  0  0  0  0  0
    2.6863    6.7272   -3.0685 C   0  0  0  0  0  0  0  0  0  0  0  0
    3.5440    6.9545   -4.1448 C   0  0  0  0  0  0  0  0  0  0  0  0
    4.1352    5.8773   -4.8050 C   0  0  0  0  0  0  0  0  0  0  0  0
    3.8687    4.5729   -4.3889 C   0  0  0  0  0  0  0  0  0  0  0  0
    1.4021   -1.8627   -2.7491 C   0  0  0  0  0  0  0  0  0  0  0  0
    0.2199   -2.0785   -2.9823 O   0  0  0  0  0  0  0  0  0  0  0  0
    2.4032   -2.3765   -3.5116 O   0  0  0  0  0  0  0  0  0  0  0  0
   -0.0064   -0.6518   -0.6491 H   0  0  0  0  0  0  0  0  0  0  0  0
    0.8273   -2.1099   -0.0753 H   0  0  0  0  0  0  0  0  0  0  0  0
    1.3684   -0.5053    0.4374 H   0  0  0  0  0  0  0  0  0  0  0  0
    4.3379    0.2398   -1.7005 H   0  0  0  0  0  0  0  0  0  0  0  0
    4.8034    2.5404   -2.4337 H   0  0  0  0  0  0  0  0  0  0  0  0
    0.1445    0.8288   -2.4915 H   0  0  0  0  0  0  0  0  0  0  0  0
    1.7498    5.2619   -1.8111 H   0  0  0  0  0  0  0  0  0  0  0  0
    2.2265    7.5657   -2.5536 H   0  0  0  0  0  0  0  0  0  0  0  0
    3.7513    7.9703   -4.4684 H   0  0  0  0  0  0  0  0  0  0  0  0
    4.8021    6.0547   -5.6436 H   0  0  0  0  0  0  0  0  0  0  0  0
    4.3361    3.7436   -4.9145 H   0  0  0  0  0  0  0  0  0  0  0  0
    3.3115   -2.1364   -3.2301 H   0  0  0  0  0  0  0  0  0  0  0  0
  1  2  1  0  0  0  0
  2  3  1  0  0  0  0
  2  4  1  0  0  0  0
  4  9  2  0  0  0  0
  4  5  1  0  0  0  0
  5  6  2  0  0  0  0
  6  7  1  0  0  0  0
  7  8  2  0  0  0  0
  8  9  1  0  0  0  0
  8 10  1  0  0  0  0
  7 11  1  0  0  0  0
 11 16  2  0  0  0  0
 11 12  1  0  0  0  0
 12 13  2  0  0  0  0
 13 14  1  0  0  0  0
 14 15  2  0  0  0  0
 15 16  1  0  0  0  0
  2 17  1  0  0  0  0
 17 18  2  0  0  0  0
 17 19  1  0  0  0  0
  1 20  1  0  0  0  0
  1 21  1  0  0  0  0
  1 22  1  0  0  0  0
  5 23  1  0  0  0  0
  6 24  1  0  0  0  0
  9 25  1  0  0  0  0
 12 26  1  0  0  0  0
 13 27  1  0  0  0  0
 14 28  1  0  0  0  0
 15 29  1  0  0  0  0
 16 30  1  0  0  0  0
 19 31  1  0  0  0  0
M  END
$$$$
