~{N}-(6-isopropyl-1,3-benzothiazol-2-yl)butanamide
  -OEChem-10071509473D

 36 37  0     0  0  0  0  0  0999 V2000
   -0.1861   -1.4336   -1.8379 C   0  0  0  0  0  0  0  0  0  0  0  0
   -1.2997   -1.1330   -0.8443 C   0  0  0  0  0  0  0  0  0  0  0  0
   -2.5096   -2.0468   -1.0266 C   0  0  0  0  0  0  0  0  0  0  0  0
   -3.6442   -1.7727   -0.0470 C   0  0  0  0  0  0  0  0  0  0  0  0
   -3.5806   -0.8791    0.7907 O   0  0  0  0  0  0  0  0  0  0  0  0
   -4.7075   -2.6419   -0.2745 N   0  0  0  0  0  0  0  0  0  0  0  0
   -5.9464   -2.6866    0.4082 C   0  0  0  0  0  0  0  0  0  0  0  0
   -6.3454   -1.9182    1.3946 N   0  0  0  0  0  0  0  0  0  0  0  0
   -7.6247   -2.2880    1.7834 C   0  0  0  0  0  0  0  0  0  0  0  0
   -8.3868   -1.6936    2.8124 C   0  0  0  0  0  0  0  0  0  0  0  0
   -9.6685   -2.1757    3.0932 C   0  0  0  0  0  0  0  0  0  0  0  0
  -10.1994   -3.2361    2.3671 C   0  0  0  0  0  0  0  0  0  0  0  0
   -9.4664   -3.8422    1.3437 C   0  0  0  0  0  0  0  0  0  0  0  0
   -8.1795   -3.3529    1.0671 C   0  0  0  0  0  0  0  0  0  0  0  0
   -7.0468   -3.8856   -0.1186 S   0  0  0  0  0  0  0  0  0  0  0  0
  -11.5705   -3.7348    2.6827 C   0  0  0  0  0  0  0  0  0  0  0  0
  -11.5677   -5.1986    3.1608 C   0  0  0  0  0  0  0  0  0  0  0  0
  -12.5418   -3.5726    1.4987 C   0  0  0  0  0  0  0  0  0  0  0  0
    0.6721   -0.7708   -1.6936 H   0  0  0  0  0  0  0  0  0  0  0  0
   -0.5485   -1.2964   -2.8617 H   0  0  0  0  0  0  0  0  0  0  0  0
    0.1588   -2.4678   -1.7379 H   0  0  0  0  0  0  0  0  0  0  0  0
   -1.6193   -0.0941   -0.9880 H   0  0  0  0  0  0  0  0  0  0  0  0
   -0.9088   -1.2086    0.1768 H   0  0  0  0  0  0  0  0  0  0  0  0
   -2.2048   -3.0968   -0.9444 H   0  0  0  0  0  0  0  0  0  0  0  0
   -2.9158   -1.8985   -2.0349 H   0  0  0  0  0  0  0  0  0  0  0  0
   -4.5959   -3.3286   -1.0175 H   0  0  0  0  0  0  0  0  0  0  0  0
   -7.9818   -0.8649    3.3865 H   0  0  0  0  0  0  0  0  0  0  0  0
  -10.2459   -1.7102    3.8880 H   0  0  0  0  0  0  0  0  0  0  0  0
   -9.8811   -4.6702    0.7754 H   0  0  0  0  0  0  0  0  0  0  0  0
  -12.0013   -3.1440    3.5129 H   0  0  0  0  0  0  0  0  0  0  0  0
  -12.5798   -5.5507    3.3885 H   0  0  0  0  0  0  0  0  0  0  0  0
  -10.9615   -5.3229    4.0647 H   0  0  0  0  0  0  0  0  0  0  0  0
  -11.1529   -5.8534    2.3863 H   0  0  0  0  0  0  0  0  0  0  0  0
  -13.5362   -3.9480    1.7651 H   0  0  0  0  0  0  0  0  0  0  0  0
  -12.1977   -4.1293    0.6203 H   0  0  0  0  0  0  0  0  0  0  0  0
  -12.6487   -2.5226    1.2054 H   0  0  0  0  0  0  0  0  0  0  0  0
  1  2  1  0  0  0  0
  2  3  1  0  0  0  0
  3  4  1  0  0  0  0
  4  5  2  0  0  0  0
  4  6  1  0  0  0  0
  6  7  1  0  0  0  0
  7 15  1  0  0  0  0
  7  8  2  0  0  0  0
  8  9  1  0  0  0  0
  9 14  2  0  0  0  0
  9 10  1  0  0  0  0
 10 11  2  0  0  0  0
 11 12  1  0  0  0  0
 12 13  2  0  0  0  0
 13 14  1  0  0  0  0
 14 15  1  0  0  0  0
 12 16  1  0  0  0  0
 16 17  1  0  0  0  0
 16 18  1  0  0  0  0
  1 19  1  0  0  0  0
  1 20  1  0  0  0  0
  1 21  1  0  0  0  0
  2 22  1  0  0  0  0
  2 23  1  0  0  0  0
  3 24  1  0  0  0  0
  3 25  1  0  0  0  0
  6 26  1  0  0  0  0
 10 27  1  0  0  0  0
 11 28  1  0  0  0  0
 13 29  1  0  0  0  0
 16 30  1  0  0  0  0
 17 31  1  0  0  0  0
 17 32  1  0  0  0  0
 17 33  1  0  0  0  0
 18 34  1  0  0  0  0
 18 35  1  0  0  0  0
 18 36  1  0  0  0  0
M  END
$$$$
