5,6-diphenyl-3-(2-pyridyl)-1,2,4-triazine
  -OEChem-10071509503D

 38 41  0     0  0  0  0  0  0999 V2000
    1.8869   -1.0360   -0.1124 C   0  0  0  0  0  0  0  0  0  0  0  0
    0.6577   -1.0556    0.5467 C   0  0  0  0  0  0  0  0  0  0  0  0
    0.6141   -1.0769    1.9408 C   0  0  0  0  0  0  0  0  0  0  0  0
    1.7997   -1.0786    2.6757 C   0  0  0  0  0  0  0  0  0  0  0  0
    3.0289   -1.0590    2.0165 C   0  0  0  0  0  0  0  0  0  0  0  0
    3.0725   -1.0377    0.6225 C   0  0  0  0  0  0  0  0  0  0  0  0
    1.7549   -1.1005    4.1216 C   0  0  0  0  0  0  0  0  0  0  0  0
    1.7252    0.0323    4.8937 C   0  0  0  0  0  0  0  0  0  0  0  0
    1.6872   -0.0490    6.2361 N   0  0  0  0  0  0  0  0  0  0  0  0
    1.6786   -1.2688    6.8128 N   0  0  0  0  0  0  0  0  0  0  0  0
    1.7085   -2.3465    6.0045 C   0  0  0  0  0  0  0  0  0  0  0  0
    1.7470   -2.3277    4.6638 N   0  0  0  0  0  0  0  0  0  0  0  0
    1.6978   -3.6364    6.6405 C   0  0  0  0  0  0  0  0  0  0  0  0
    1.7271   -4.8015    5.8911 C   0  0  0  0  0  0  0  0  0  0  0  0
    1.7148   -6.0136    6.5722 C   0  0  0  0  0  0  0  0  0  0  0  0
    1.6744   -6.0234    7.9620 C   0  0  0  0  0  0  0  0  0  0  0  0
    1.6476   -4.8036    8.6187 C   0  0  0  0  0  0  0  0  0  0  0  0
    1.6583   -3.6061    7.9915 N   0  0  0  0  0  0  0  0  0  0  0  0
    1.7348    1.3740    4.3626 C   0  0  0  0  0  0  0  0  0  0  0  0
    2.9470    2.0285    4.1433 C   0  0  0  0  0  0  0  0  0  0  0  0
    2.9564    3.3254    3.6299 C   0  0  0  0  0  0  0  0  0  0  0  0
    1.7537    3.9678    3.3358 C   0  0  0  0  0  0  0  0  0  0  0  0
    0.5416    3.3133    3.5550 C   0  0  0  0  0  0  0  0  0  0  0  0
    0.5322    2.0164    4.0685 C   0  0  0  0  0  0  0  0  0  0  0  0
    1.9211   -1.0177   -1.1977 H   0  0  0  0  0  0  0  0  0  0  0  0
   -0.2658   -1.0529   -0.0248 H   0  0  0  0  0  0  0  0  0  0  0  0
   -0.3514   -1.0914    2.4407 H   0  0  0  0  0  0  0  0  0  0  0  0
    3.9619   -1.0598    2.5752 H   0  0  0  0  0  0  0  0  0  0  0  0
    4.0296   -1.0208    0.1095 H   0  0  0  0  0  0  0  0  0  0  0  0
    1.7599   -4.7847    4.8065 H   0  0  0  0  0  0  0  0  0  0  0  0
    1.7355   -6.9488    6.0207 H   0  0  0  0  0  0  0  0  0  0  0  0
    1.6615   -6.9562    8.5139 H   0  0  0  0  0  0  0  0  0  0  0  0
    1.6159   -4.7560    9.7022 H   0  0  0  0  0  0  0  0  0  0  0  0
    3.8928    1.5406    4.3667 H   0  0  0  0  0  0  0  0  0  0  0  0
    3.9004    3.8343    3.4584 H   0  0  0  0  0  0  0  0  0  0  0  0
    1.7615    4.9776    2.9359 H   0  0  0  0  0  0  0  0  0  0  0  0
   -0.3946    3.8143    3.3268 H   0  0  0  0  0  0  0  0  0  0  0  0
   -0.4208    1.5200    4.2352 H   0  0  0  0  0  0  0  0  0  0  0  0
  1  6  2  0  0  0  0
  1  2  1  0  0  0  0
  2  3  2  0  0  0  0
  3  4  1  0  0  0  0
  4  5  2  0  0  0  0
  5  6  1  0  0  0  0
  4  7  1  0  0  0  0
  7 12  2  0  0  0  0
  7  8  1  0  0  0  0
  8  9  2  0  0  0  0
  9 10  1  0  0  0  0
 10 11  2  0  0  0  0
 11 12  1  0  0  0  0
 11 13  1  0  0  0  0
 13 18  2  0  0  0  0
 13 14  1  0  0  0  0
 14 15  2  0  0  0  0
 15 16  1  0  0  0  0
 16 17  2  0  0  0  0
 17 18  1  0  0  0  0
  8 19  1  0  0  0  0
 19 24  2  0  0  0  0
 19 20  1  0  0  0  0
 20 21  2  0  0  0  0
 21 22  1  0  0  0  0
 22 23  2  0  0  0  0
 23 24  1  0  0  0  0
  1 25  1  0  0  0  0
  2 26  1  0  0  0  0
  3 27  1  0  0  0  0
  5 28  1  0  0  0  0
  6 29  1  0  0  0  0
 14 30  1  0  0  0  0
 15 31  1  0  0  0  0
 16 32  1  0  0  0  0
 17 33  1  0  0  0  0
 20 34  1  0  0  0  0
 21 35  1  0  0  0  0
 22 36  1  0  0  0  0
 23 37  1  0  0  0  0
 24 38  1  0  0  0  0
M  END
$$$$
