2-(4-carboxy-2-quinolyl)quinoline-4-carboxylic acid
  -OEChem-10071509473D

 38 41  0     0  0  0  0  0  0999 V2000
    0.1298    2.0977   -0.4527 C   0  0  0  0  0  0  0  0  0  0  0  0
   -0.5812    3.2417   -0.8037 C   0  0  0  0  0  0  0  0  0  0  0  0
   -1.9747    3.1875   -0.9770 C   0  0  0  0  0  0  0  0  0  0  0  0
   -2.6683    1.9725   -0.7968 C   0  0  0  0  0  0  0  0  0  0  0  0
   -1.9323    0.8440   -0.4461 C   0  0  0  0  0  0  0  0  0  0  0  0
   -0.5469    0.8976   -0.2738 C   0  0  0  0  0  0  0  0  0  0  0  0
   -4.0027    1.8858   -0.9548 N   0  0  0  0  0  0  0  0  0  0  0  0
   -4.6804    3.0058   -1.2959 C   0  0  0  0  0  0  0  0  0  0  0  0
   -4.0902    4.2376   -1.4936 C   0  0  0  0  0  0  0  0  0  0  0  0
   -2.7151    4.3237   -1.3301 C   0  0  0  0  0  0  0  0  0  0  0  0
   -2.0988    5.6300   -1.5420 C   0  0  0  0  0  0  0  0  0  0  0  0
   -1.2355    5.8800   -2.3850 O   0  0  0  0  0  0  0  0  0  0  0  0
   -2.5862    6.5732   -0.6933 O   0  0  0  0  0  0  0  0  0  0  0  0
   -6.1058    2.8314   -1.4440 C   0  0  0  0  0  0  0  0  0  0  0  0
   -6.8460    3.9258   -1.1535 N   0  0  0  0  0  0  0  0  0  0  0  0
   -8.1847    3.8373   -1.2670 C   0  0  0  0  0  0  0  0  0  0  0  0
   -8.9841    4.9399   -0.9779 C   0  0  0  0  0  0  0  0  0  0  0  0
  -10.3760    4.8836   -1.0848 C   0  0  0  0  0  0  0  0  0  0  0  0
  -10.9950    3.7071   -1.4883 C   0  0  0  0  0  0  0  0  0  0  0  0
  -10.2200    2.5894   -1.7839 C   0  0  0  0  0  0  0  0  0  0  0  0
   -8.8201    2.6462   -1.6762 C   0  0  0  0  0  0  0  0  0  0  0  0
   -8.0158    1.5361   -1.9676 C   0  0  0  0  0  0  0  0  0  0  0  0
   -6.6361    1.6241   -1.8515 C   0  0  0  0  0  0  0  0  0  0  0  0
   -8.5684    0.2559   -2.4000 C   0  0  0  0  0  0  0  0  0  0  0  0
   -9.2481    0.0811   -3.4128 O   0  0  0  0  0  0  0  0  0  0  0  0
   -8.2490   -0.7561   -1.5507 O   0  0  0  0  0  0  0  0  0  0  0  0
    1.2064    2.1434   -0.3196 H   0  0  0  0  0  0  0  0  0  0  0  0
   -0.0262    4.1670   -0.9373 H   0  0  0  0  0  0  0  0  0  0  0  0
   -2.4387   -0.1085   -0.3007 H   0  0  0  0  0  0  0  0  0  0  0  0
    0.0001    0.0002    0.0003 H   0  0  0  0  0  0  0  0  0  0  0  0
   -4.6790    5.1080   -1.7676 H   0  0  0  0  0  0  0  0  0  0  0  0
   -2.1788    7.4553   -0.8284 H   0  0  0  0  0  0  0  0  0  0  0  0
   -8.5235    5.8736   -0.6603 H   0  0  0  0  0  0  0  0  0  0  0  0
  -10.9731    5.7605   -0.8519 H   0  0  0  0  0  0  0  0  0  0  0  0
  -12.0764    3.6595   -1.5724 H   0  0  0  0  0  0  0  0  0  0  0  0
  -10.7308    1.6821   -2.0972 H   0  0  0  0  0  0  0  0  0  0  0  0
   -5.9982    0.7738   -2.0738 H   0  0  0  0  0  0  0  0  0  0  0  0
   -8.6151   -1.6213   -1.8331 H   0  0  0  0  0  0  0  0  0  0  0  0
  1  6  1  0  0  0  0
  1  2  2  0  0  0  0
  2  3  1  0  0  0  0
  3 10  1  0  0  0  0
  3  4  2  0  0  0  0
  4  5  1  0  0  0  0
  5  6  2  0  0  0  0
  4  7  1  0  0  0  0
  7  8  2  0  0  0  0
  8  9  1  0  0  0  0
  9 10  2  0  0  0  0
 10 11  1  0  0  0  0
 11 12  2  0  0  0  0
 11 13  1  0  0  0  0
  8 14  1  0  0  0  0
 14 23  1  0  0  0  0
 14 15  2  0  0  0  0
 15 16  1  0  0  0  0
 16 21  1  0  0  0  0
 16 17  2  0  0  0  0
 17 18  1  0  0  0  0
 18 19  2  0  0  0  0
 19 20  1  0  0  0  0
 20 21  2  0  0  0  0
 21 22  1  0  0  0  0
 22 23  2  0  0  0  0
 22 24  1  0  0  0  0
 24 25  2  0  0  0  0
 24 26  1  0  0  0  0
  1 27  1  0  0  0  0
  2 28  1  0  0  0  0
  5 29  1  0  0  0  0
  6 30  1  0  0  0  0
  9 31  1  0  0  0  0
 13 32  1  0  0  0  0
 17 33  1  0  0  0  0
 18 34  1  0  0  0  0
 19 35  1  0  0  0  0
 20 36  1  0  0  0  0
 23 37  1  0  0  0  0
 26 38  1  0  0  0  0
M  END
$$$$
