2-[(6-methyl-1,1-dioxo-4~{H}-1$l^{6},2,4-benzothiadiazin-3-yl)sulfanyl]-1-pyrrol
  -OEChem-10071509513D

 39 41  0     0  0  0  0  0  0999 V2000
   -0.4724    3.5518    7.1001 C   0  0  0  0  0  0  0  0  0  0  0  0
   -0.7139    2.1667    7.5990 C   0  0  0  0  0  0  0  0  0  0  0  0
   -1.0837    1.9610    8.9281 C   0  0  0  0  0  0  0  0  0  0  0  0
   -1.3097    0.6691    9.3949 C   0  0  0  0  0  0  0  0  0  0  0  0
   -1.1609   -0.4046    8.5166 C   0  0  0  0  0  0  0  0  0  0  0  0
   -0.7924   -0.2270    7.1827 C   0  0  0  0  0  0  0  0  0  0  0  0
   -0.5693    1.0794    6.7324 C   0  0  0  0  0  0  0  0  0  0  0  0
   -0.6482   -1.3141    6.3161 N   0  0  0  0  0  0  0  0  0  0  0  0
   -0.8575   -2.6090    6.7150 C   0  0  0  0  0  0  0  0  0  0  0  0
   -1.2021   -3.0568    7.8793 N   0  0  0  0  0  0  0  0  0  0  0  0
   -1.4512   -2.0368    9.1259 S   0  0  0  0  0  0  0  0  0  0  0  0
   -0.4268   -2.2629   10.1293 O   0  0  0  0  0  0  0  0  0  0  0  0
   -2.8570   -2.0707    9.4862 O   0  0  0  0  0  0  0  0  0  0  0  0
   -0.6171   -3.8120    5.4477 S   0  0  0  0  0  0  0  0  0  0  0  0
   -2.2978   -3.8579    4.7989 C   0  0  0  0  0  0  0  0  0  0  0  0
   -2.5345   -2.6902    3.8750 C   0  0  0  0  0  0  0  0  0  0  0  0
   -1.8462   -2.5453    2.8635 O   0  0  0  0  0  0  0  0  0  0  0  0
   -3.5474   -1.8273    4.2520 N   0  0  0  0  0  0  0  0  0  0  0  0
   -4.3986   -1.9436    5.4319 C   0  0  0  0  0  0  0  0  0  0  0  0
   -5.1278   -0.6094    5.5065 C   0  0  0  0  0  0  0  0  0  0  0  0
   -5.2279   -0.1927    4.0445 C   0  0  0  0  0  0  0  0  0  0  0  0
   -3.8955   -0.6495    3.4709 C   0  0  0  0  0  0  0  0  0  0  0  0
   -1.4028    3.9774    6.7117 H   0  0  0  0  0  0  0  0  0  0  0  0
   -0.0958    4.1959    7.9015 H   0  0  0  0  0  0  0  0  0  0  0  0
    0.2783    3.5546    6.3027 H   0  0  0  0  0  0  0  0  0  0  0  0
   -1.1970    2.8033    9.6057 H   0  0  0  0  0  0  0  0  0  0  0  0
   -1.5966    0.5138   10.4306 H   0  0  0  0  0  0  0  0  0  0  0  0
   -0.2810    1.2537    5.6976 H   0  0  0  0  0  0  0  0  0  0  0  0
   -0.3770   -1.1161    5.3596 H   0  0  0  0  0  0  0  0  0  0  0  0
   -2.4548   -4.7967    4.2557 H   0  0  0  0  0  0  0  0  0  0  0  0
   -3.0140   -3.8278    5.6280 H   0  0  0  0  0  0  0  0  0  0  0  0
   -5.0954   -2.7715    5.2618 H   0  0  0  0  0  0  0  0  0  0  0  0
   -3.8065   -2.1508    6.3273 H   0  0  0  0  0  0  0  0  0  0  0  0
   -6.1014   -0.6880    5.9977 H   0  0  0  0  0  0  0  0  0  0  0  0
   -4.5217    0.1193    6.0582 H   0  0  0  0  0  0  0  0  0  0  0  0
   -6.0507   -0.7330    3.5611 H   0  0  0  0  0  0  0  0  0  0  0  0
   -5.3976    0.8796    3.9149 H   0  0  0  0  0  0  0  0  0  0  0  0
   -3.9452   -0.8888    2.4045 H   0  0  0  0  0  0  0  0  0  0  0  0
   -3.1112    0.0988    3.6299 H   0  0  0  0  0  0  0  0  0  0  0  0
  1  2  1  0  0  0  0
  2  7  2  0  0  0  0
  2  3  1  0  0  0  0
  3  4  2  0  0  0  0
  4  5  1  0  0  0  0
  5 11  1  0  0  0  0
  5  6  2  0  0  0  0
  6  7  1  0  0  0  0
  6  8  1  0  0  0  0
  8  9  1  0  0  0  0
  9 10  2  0  0  0  0
 10 11  1  0  0  0  0
 11 12  2  0  0  0  0
 11 13  2  0  0  0  0
  9 14  1  0  0  0  0
 14 15  1  0  0  0  0
 15 16  1  0  0  0  0
 16 17  2  0  0  0  0
 16 18  1  0  0  0  0
 18 22  1  0  0  0  0
 18 19  1  0  0  0  0
 19 20  1  0  0  0  0
 20 21  1  0  0  0  0
 21 22  1  0  0  0  0
  1 23  1  0  0  0  0
  1 24  1  0  0  0  0
  1 25  1  0  0  0  0
  3 26  1  0  0  0  0
  4 27  1  0  0  0  0
  7 28  1  0  0  0  0
  8 29  1  0  0  0  0
 15 30  1  0  0  0  0
 15 31  1  0  0  0  0
 19 32  1  0  0  0  0
 19 33  1  0  0  0  0
 20 34  1  0  0  0  0
 20 35  1  0  0  0  0
 21 36  1  0  0  0  0
 21 37  1  0  0  0  0
 22 38  1  0  0  0  0
 22 39  1  0  0  0  0
M  END
$$$$
