3-(1~{H}-indol-3-yl)propanoic acid
  -OEChem-10071509483D

 25 26  0     0  0  0  0  0  0999 V2000
   -0.7036    1.3640    1.5041 C   0  0  0  0  0  0  0  0  0  0  0  0
   -0.7671    0.1975    0.7446 C   0  0  0  0  0  0  0  0  0  0  0  0
   -1.8022   -0.7245    0.9247 C   0  0  0  0  0  0  0  0  0  0  0  0
   -2.7685   -0.4315    1.8936 C   0  0  0  0  0  0  0  0  0  0  0  0
   -2.7304    0.7292    2.6692 C   0  0  0  0  0  0  0  0  0  0  0  0
   -1.6773    1.6439    2.4698 C   0  0  0  0  0  0  0  0  0  0  0  0
   -3.8586    0.6897    3.5356 C   0  0  0  0  0  0  0  0  0  0  0  0
   -4.5471   -0.4724    3.2738 C   0  0  0  0  0  0  0  0  0  0  0  0
   -3.8818   -1.1421    2.2822 N   0  0  0  0  0  0  0  0  0  0  0  0
   -4.2341    1.7076    4.5379 C   0  0  0  0  0  0  0  0  0  0  0  0
   -3.6286    1.4730    5.9333 C   0  0  0  0  0  0  0  0  0  0  0  0
   -4.0510    2.5463    6.9073 C   0  0  0  0  0  0  0  0  0  0  0  0
   -4.7840    3.4822    6.6141 O   0  0  0  0  0  0  0  0  0  0  0  0
   -3.5100    2.3828    8.1397 O   0  0  0  0  0  0  0  0  0  0  0  0
    0.1112    2.0654    1.3462 H   0  0  0  0  0  0  0  0  0  0  0  0
   -0.0003    0.0001   -0.0001 H   0  0  0  0  0  0  0  0  0  0  0  0
   -1.8514   -1.6318    0.3322 H   0  0  0  0  0  0  0  0  0  0  0  0
   -1.6132    2.5572    3.0545 H   0  0  0  0  0  0  0  0  0  0  0  0
   -5.4494   -0.8842    3.7045 H   0  0  0  0  0  0  0  0  0  0  0  0
   -4.1662   -2.0297    1.8914 H   0  0  0  0  0  0  0  0  0  0  0  0
   -3.9586    2.7265    4.1988 H   0  0  0  0  0  0  0  0  0  0  0  0
   -5.3359    1.7418    4.6473 H   0  0  0  0  0  0  0  0  0  0  0  0
   -3.9689    0.5167    6.3493 H   0  0  0  0  0  0  0  0  0  0  0  0
   -2.5355    1.4078    5.8915 H   0  0  0  0  0  0  0  0  0  0  0  0
   -2.9396    1.5921    8.2477 H   0  0  0  0  0  0  0  0  0  0  0  0
  1  6  2  0  0  0  0
  1  2  1  0  0  0  0
  2  3  2  0  0  0  0
  3  4  1  0  0  0  0
  4  9  1  0  0  0  0
  4  5  2  0  0  0  0
  5  6  1  0  0  0  0
  5  7  1  0  0  0  0
  7  8  2  0  0  0  0
  8  9  1  0  0  0  0
  7 10  1  0  0  0  0
 10 11  1  0  0  0  0
 11 12  1  0  0  0  0
 12 13  2  0  0  0  0
 12 14  1  0  0  0  0
  1 15  1  0  0  0  0
  2 16  1  0  0  0  0
  3 17  1  0  0  0  0
  6 18  1  0  0  0  0
  8 19  1  0  0  0  0
  9 20  1  0  0  0  0
 10 21  1  0  0  0  0
 10 22  1  0  0  0  0
 11 23  1  0  0  0  0
 11 24  1  0  0  0  0
 14 25  1  0  0  0  0
M  END
$$$$
