6-bromo-~{N}-(2-phenylethyl)quinazolin-4-amine
  -OEChem-10071509483D

 34 36  0     0  0  0  0  0  0999 V2000
    0.7559   -0.5315    1.3889 C   0  0  0  0  0  0  0  0  0  0  0  0
    0.8143   -1.9226    1.4746 C   0  0  0  0  0  0  0  0  0  0  0  0
    1.9082   -2.6085    0.9469 C   0  0  0  0  0  0  0  0  0  0  0  0
    2.9438   -1.9034    0.3336 C   0  0  0  0  0  0  0  0  0  0  0  0
    2.8854   -0.5124    0.2480 C   0  0  0  0  0  0  0  0  0  0  0  0
    1.7914    0.1736    0.7756 C   0  0  0  0  0  0  0  0  0  0  0  0
    4.1269   -2.6461   -0.2372 C   0  0  0  0  0  0  0  0  0  0  0  0
    5.2553   -2.8353    0.7735 C   0  0  0  0  0  0  0  0  0  0  0  0
    5.7734   -1.5813    1.2668 N   0  0  0  0  0  0  0  0  0  0  0  0
    6.3265   -1.4131    2.5607 C   0  0  0  0  0  0  0  0  0  0  0  0
    6.4127   -0.1353    3.1062 C   0  0  0  0  0  0  0  0  0  0  0  0
    5.9723    1.0150    2.4287 C   0  0  0  0  0  0  0  0  0  0  0  0
    6.0870    2.2639    3.0311 C   0  0  0  0  0  0  0  0  0  0  0  0
    6.6389    2.3638    4.3034 C   0  0  0  0  0  0  0  0  0  0  0  0
    7.0745    1.2152    4.9706 C   0  0  0  0  0  0  0  0  0  0  0  0
    6.9717   -0.0473    4.3916 C   0  0  0  0  0  0  0  0  0  0  0  0
    7.3958   -1.1409    5.0487 N   0  0  0  0  0  0  0  0  0  0  0  0
    7.2578   -2.3219    4.4125 C   0  0  0  0  0  0  0  0  0  0  0  0
    6.7414   -2.5284    3.1904 N   0  0  0  0  0  0  0  0  0  0  0  0
    5.4971    3.8142    2.1276 Br  0  0  0  0  0  0  0  0  0  0  0  0
   -0.0952    0.0028    1.8009 H   0  0  0  0  0  0  0  0  0  0  0  0
    0.0088   -2.4717    1.9529 H   0  0  0  0  0  0  0  0  0  0  0  0
    1.9451   -3.6923    1.0181 H   0  0  0  0  0  0  0  0  0  0  0  0
    3.6876    0.0453   -0.2282 H   0  0  0  0  0  0  0  0  0  0  0  0
    1.7467    1.2567    0.7098 H   0  0  0  0  0  0  0  0  0  0  0  0
    4.5049   -2.0864   -1.1021 H   0  0  0  0  0  0  0  0  0  0  0  0
    3.8014   -3.6193   -0.6264 H   0  0  0  0  0  0  0  0  0  0  0  0
    4.8880   -3.3891    1.6433 H   0  0  0  0  0  0  0  0  0  0  0  0
    6.0939   -3.3927    0.3432 H   0  0  0  0  0  0  0  0  0  0  0  0
    5.7403   -0.7760    0.6516 H   0  0  0  0  0  0  0  0  0  0  0  0
    5.5397    0.9457    1.4330 H   0  0  0  0  0  0  0  0  0  0  0  0
    6.7408    3.3281    4.7947 H   0  0  0  0  0  0  0  0  0  0  0  0
    7.5014    1.3204    5.9663 H   0  0  0  0  0  0  0  0  0  0  0  0
    7.6013   -3.1993    4.9470 H   0  0  0  0  0  0  0  0  0  0  0  0
  1  6  2  0  0  0  0
  1  2  1  0  0  0  0
  2  3  2  0  0  0  0
  3  4  1  0  0  0  0
  4  5  2  0  0  0  0
  5  6  1  0  0  0  0
  4  7  1  0  0  0  0
  7  8  1  0  0  0  0
  8  9  1  0  0  0  0
  9 10  1  0  0  0  0
 10 19  2  0  0  0  0
 10 11  1  0  0  0  0
 11 16  2  0  0  0  0
 11 12  1  0  0  0  0
 12 13  2  0  0  0  0
 13 14  1  0  0  0  0
 14 15  2  0  0  0  0
 15 16  1  0  0  0  0
 16 17  1  0  0  0  0
 17 18  2  0  0  0  0
 18 19  1  0  0  0  0
 13 20  1  0  0  0  0
  1 21  1  0  0  0  0
  2 22  1  0  0  0  0
  3 23  1  0  0  0  0
  5 24  1  0  0  0  0
  6 25  1  0  0  0  0
  7 26  1  0  0  0  0
  7 27  1  0  0  0  0
  8 28  1  0  0  0  0
  8 29  1  0  0  0  0
  9 30  1  0  0  0  0
 12 31  1  0  0  0  0
 14 32  1  0  0  0  0
 15 33  1  0  0  0  0
 18 34  1  0  0  0  0
M  END
$$$$
