quinoxaline-5-carboxylic acid
  -OEChem-10071509473D

 19 20  0     0  0  0  0  0  0999 V2000
    1.9338   -0.9390   -0.0015 C   0  0  0  0  0  0  0  0  0  0  0  0
    0.8925   -0.2271    0.5751 C   0  0  0  0  0  0  0  0  0  0  0  0
    0.9988    0.1958    1.8989 C   0  0  0  0  0  0  0  0  0  0  0  0
    2.1323   -0.0820    2.6593 C   0  0  0  0  0  0  0  0  0  0  0  0
    3.1886   -0.8044    2.0745 C   0  0  0  0  0  0  0  0  0  0  0  0
    3.0723   -1.2223    0.7509 C   0  0  0  0  0  0  0  0  0  0  0  0
    4.2972   -1.0899    2.7798 N   0  0  0  0  0  0  0  0  0  0  0  0
    4.3566   -0.6622    4.0538 C   0  0  0  0  0  0  0  0  0  0  0  0
    3.3285    0.0410    4.6230 C   0  0  0  0  0  0  0  0  0  0  0  0
    2.2113    0.3367    3.9346 N   0  0  0  0  0  0  0  0  0  0  0  0
   -0.1177    0.9402    2.4710 C   0  0  0  0  0  0  0  0  0  0  0  0
   -0.4411    0.9352    3.6606 O   0  0  0  0  0  0  0  0  0  0  0  0
   -0.7882    1.6644    1.5359 O   0  0  0  0  0  0  0  0  0  0  0  0
    1.8645   -1.2746   -1.0316 H   0  0  0  0  0  0  0  0  0  0  0  0
    0.0042   -0.0072   -0.0113 H   0  0  0  0  0  0  0  0  0  0  0  0
    3.8817   -1.7815    0.2857 H   0  0  0  0  0  0  0  0  0  0  0  0
    5.2594   -0.9060    4.5988 H   0  0  0  0  0  0  0  0  0  0  0  0
    3.3656    0.3895    5.6472 H   0  0  0  0  0  0  0  0  0  0  0  0
   -1.5408    2.1696    1.9110 H   0  0  0  0  0  0  0  0  0  0  0  0
  1  6  2  0  0  0  0
  1  2  1  0  0  0  0
  2  3  2  0  0  0  0
  3  4  1  0  0  0  0
  4 10  2  0  0  0  0
  4  5  1  0  0  0  0
  5  6  1  0  0  0  0
  5  7  2  0  0  0  0
  7  8  1  0  0  0  0
  8  9  2  0  0  0  0
  9 10  1  0  0  0  0
  3 11  1  0  0  0  0
 11 12  2  0  0  0  0
 11 13  1  0  0  0  0
  1 14  1  0  0  0  0
  2 15  1  0  0  0  0
  6 16  1  0  0  0  0
  8 17  1  0  0  0  0
  9 18  1  0  0  0  0
 13 19  1  0  0  0  0
M  END
$$$$
