2,8-dimethylpyrido[2,3]pyrazolo[2,4-~{a}]pyrimidin-4-ol
  -OEChem-10071509473D

 26 28  0     0  0  0  0  0  0999 V2000
    2.6935    1.4952   -4.1452 C   0  0  0  0  0  0  0  0  0  0  0  0
    1.9240    1.2388   -2.8855 C   0  0  0  0  0  0  0  0  0  0  0  0
    1.7123    2.3383   -2.0212 C   0  0  0  0  0  0  0  0  0  0  0  0
    1.0048    2.1917   -0.8240 C   0  0  0  0  0  0  0  0  0  0  0  0
    0.5914    0.8748   -0.6689 C   0  0  0  0  0  0  0  0  0  0  0  0
    0.8155   -0.2167   -1.5518 C   0  0  0  0  0  0  0  0  0  0  0  0
    1.5073   -0.0558   -2.7152 N   0  0  0  0  0  0  0  0  0  0  0  0
    0.2725   -1.3401   -1.0801 N   0  0  0  0  0  0  0  0  0  0  0  0
   -0.3039   -0.9847    0.1063 N   0  0  0  0  0  0  0  0  0  0  0  0
   -0.1250    0.3743    0.3887 C   0  0  0  0  0  0  0  0  0  0  0  0
   -0.6216    0.9384    1.5254 N   0  0  0  0  0  0  0  0  0  0  0  0
   -1.2699    0.1530    2.3351 C   0  0  0  0  0  0  0  0  0  0  0  0
   -1.5103   -1.3049    2.1182 C   0  0  0  0  0  0  0  0  0  0  0  0
   -1.0036   -1.8136    0.9884 C   0  0  0  0  0  0  0  0  0  0  0  0
   -1.1659   -3.1503    0.6850 O   0  0  0  0  0  0  0  0  0  0  0  0
   -1.8360    0.7386    3.6032 C   0  0  0  0  0  0  0  0  0  0  0  0
    2.0092    1.7767   -4.9513 H   0  0  0  0  0  0  0  0  0  0  0  0
    3.4216    2.3003   -4.0015 H   0  0  0  0  0  0  0  0  0  0  0  0
    3.2523    0.6040   -4.4501 H   0  0  0  0  0  0  0  0  0  0  0  0
    2.1034    3.3185   -2.2852 H   0  0  0  0  0  0  0  0  0  0  0  0
    0.8210    3.0040   -0.1360 H   0  0  0  0  0  0  0  0  0  0  0  0
   -2.0619   -1.8835    2.8467 H   0  0  0  0  0  0  0  0  0  0  0  0
   -1.6653   -3.5852    1.3834 H   0  0  0  0  0  0  0  0  0  0  0  0
   -2.8438    1.0930    3.4123 H   0  0  0  0  0  0  0  0  0  0  0  0
   -1.2083    1.5634    3.9259 H   0  0  0  0  0  0  0  0  0  0  0  0
   -1.8520   -0.0271    4.3725 H   0  0  0  0  0  0  0  0  0  0  0  0
  1  2  1  0  0  0  0
  2  7  2  0  0  0  0
  2  3  1  0  0  0  0
  3  4  2  0  0  0  0
  4  5  1  0  0  0  0
  5 10  2  0  0  0  0
  5  6  1  0  0  0  0
  6  7  1  0  0  0  0
  6  8  2  0  0  0  0
  8  9  1  0  0  0  0
  9 14  1  0  0  0  0
  9 10  1  0  0  0  0
 10 11  1  0  0  0  0
 11 12  2  0  0  0  0
 12 13  1  0  0  0  0
 13 14  2  0  0  0  0
 14 15  1  0  0  0  0
 12 16  1  0  0  0  0
  1 17  1  0  0  0  0
  1 18  1  0  0  0  0
  1 19  1  0  0  0  0
  3 20  1  0  0  0  0
  4 21  1  0  0  0  0
 13 22  1  0  0  0  0
 15 23  1  0  0  0  0
 16 24  1  0  0  0  0
 16 25  1  0  0  0  0
 16 26  1  0  0  0  0
M  END
$$$$
