6,7-dimethyl-2,3-bis(2-pyridyl)quinoxaline
  -OEChem-10071509493D

 40 43  0     0  0  0  0  0  0999 V2000
   -0.3435    0.0969   -0.1966 C   0  0  0  0  0  0  0  0  0  0  0  0
    0.8925   -0.2271    0.5751 C   0  0  0  0  0  0  0  0  0  0  0  0
    0.9988    0.1958    1.8989 C   0  0  0  0  0  0  0  0  0  0  0  0
    2.1323   -0.0820    2.6593 C   0  0  0  0  0  0  0  0  0  0  0  0
    3.1886   -0.8044    2.0745 C   0  0  0  0  0  0  0  0  0  0  0  0
    3.0723   -1.2223    0.7509 C   0  0  0  0  0  0  0  0  0  0  0  0
    1.9338   -0.9390   -0.0015 C   0  0  0  0  0  0  0  0  0  0  0  0
    1.8590   -1.4097   -1.4160 C   0  0  0  0  0  0  0  0  0  0  0  0
    4.2972   -1.0899    2.7798 N   0  0  0  0  0  0  0  0  0  0  0  0
    4.3566   -0.6622    4.0538 C   0  0  0  0  0  0  0  0  0  0  0  0
    3.3285    0.0410    4.6230 C   0  0  0  0  0  0  0  0  0  0  0  0
    2.2113    0.3367    3.9346 N   0  0  0  0  0  0  0  0  0  0  0  0
    3.3442    0.5220    5.9848 C   0  0  0  0  0  0  0  0  0  0  0  0
    2.3846    0.1131    6.8968 C   0  0  0  0  0  0  0  0  0  0  0  0
    2.4608    0.6160    8.1909 C   0  0  0  0  0  0  0  0  0  0  0  0
    3.4798    1.4996    8.5285 C   0  0  0  0  0  0  0  0  0  0  0  0
    4.3905    1.8463    7.5435 C   0  0  0  0  0  0  0  0  0  0  0  0
    4.3488    1.3786    6.2758 N   0  0  0  0  0  0  0  0  0  0  0  0
    5.5745   -1.0053    4.7502 C   0  0  0  0  0  0  0  0  0  0  0  0
    6.8062   -0.5667    4.2915 C   0  0  0  0  0  0  0  0  0  0  0  0
    7.9373   -0.9345    5.0116 C   0  0  0  0  0  0  0  0  0  0  0  0
    7.8040   -1.7183    6.1523 C   0  0  0  0  0  0  0  0  0  0  0  0
    6.5276   -2.1052    6.5278 C   0  0  0  0  0  0  0  0  0  0  0  0
    5.4054   -1.7676    5.8538 N   0  0  0  0  0  0  0  0  0  0  0  0
   -1.0811   -0.7023   -0.0751 H   0  0  0  0  0  0  0  0  0  0  0  0
   -0.7829    1.0393    0.1466 H   0  0  0  0  0  0  0  0  0  0  0  0
   -0.1197    0.2132   -1.2623 H   0  0  0  0  0  0  0  0  0  0  0  0
    0.1795    0.7548    2.3482 H   0  0  0  0  0  0  0  0  0  0  0  0
    3.8879   -1.7816    0.2950 H   0  0  0  0  0  0  0  0  0  0  0  0
    1.4125   -2.4101   -1.4612 H   0  0  0  0  0  0  0  0  0  0  0  0
    1.2547   -0.7298   -2.0295 H   0  0  0  0  0  0  0  0  0  0  0  0
    2.8555   -1.4512   -1.8739 H   0  0  0  0  0  0  0  0  0  0  0  0
    1.5932   -0.5780    6.6251 H   0  0  0  0  0  0  0  0  0  0  0  0
    1.7266    0.3207    8.9344 H   0  0  0  0  0  0  0  0  0  0  0  0
    3.5574    1.9063    9.5302 H   0  0  0  0  0  0  0  0  0  0  0  0
    5.2044    2.5319    7.7551 H   0  0  0  0  0  0  0  0  0  0  0  0
    6.9012    0.0460    3.4007 H   0  0  0  0  0  0  0  0  0  0  0  0
    8.9209   -0.6119    4.6837 H   0  0  0  0  0  0  0  0  0  0  0  0
    8.6717   -2.0193    6.7278 H   0  0  0  0  0  0  0  0  0  0  0  0
    6.3689   -2.7169    7.4098 H   0  0  0  0  0  0  0  0  0  0  0  0
  1  2  1  0  0  0  0
  2  7  2  0  0  0  0
  2  3  1  0  0  0  0
  3  4  2  0  0  0  0
  4 12  1  0  0  0  0
  4  5  1  0  0  0  0
  5  6  2  0  0  0  0
  6  7  1  0  0  0  0
  7  8  1  0  0  0  0
  5  9  1  0  0  0  0
  9 10  2  0  0  0  0
 10 11  1  0  0  0  0
 11 12  2  0  0  0  0
 11 13  1  0  0  0  0
 13 18  2  0  0  0  0
 13 14  1  0  0  0  0
 14 15  2  0  0  0  0
 15 16  1  0  0  0  0
 16 17  2  0  0  0  0
 17 18  1  0  0  0  0
 10 19  1  0  0  0  0
 19 24  2  0  0  0  0
 19 20  1  0  0  0  0
 20 21  2  0  0  0  0
 21 22  1  0  0  0  0
 22 23  2  0  0  0  0
 23 24  1  0  0  0  0
  1 25  1  0  0  0  0
  1 26  1  0  0  0  0
  1 27  1  0  0  0  0
  3 28  1  0  0  0  0
  6 29  1  0  0  0  0
  8 30  1  0  0  0  0
  8 31  1  0  0  0  0
  8 32  1  0  0  0  0
 14 33  1  0  0  0  0
 15 34  1  0  0  0  0
 16 35  1  0  0  0  0
 17 36  1  0  0  0  0
 20 37  1  0  0  0  0
 21 38  1  0  0  0  0
 22 39  1  0  0  0  0
 23 40  1  0  0  0  0
M  END
$$$$
