1-[(2~{R})-2-(6,7,8,9-tetrahydro-5~{H}-[1,2,4]triazolo[4,3-d][1,4]diazepin-3-yl)
  -OEChem-10071509503D

 37 39  0     1  0  0  0  0  0999 V2000
    6.0328   -1.5405    0.4641 C   0  0  0  0  0  0  0  0  0  0  0  0
    4.6600   -1.3392   -0.1259 C   0  0  0  0  0  0  0  0  0  0  0  0
    3.8338   -2.2531   -0.1054 O   0  0  0  0  0  0  0  0  0  0  0  0
    4.4174   -0.0827   -0.6608 N   0  0  0  0  0  0  0  0  0  0  0  0
    5.4088    0.9748   -0.8462 C   0  0  0  0  0  0  0  0  0  0  0  0
    4.6141    2.1825   -1.3187 C   0  0  0  0  0  0  0  0  0  0  0  0
    3.4325    1.5598   -2.0547 C   0  0  0  0  0  0  0  0  0  0  0  0
    3.1319    0.2827   -1.2627 C   0  0  2  0  0  0  0  0  0  0  0  0
    2.7994   -0.5389   -1.9466 H   0  0  0  0  0  0  0  0  0  0  0  0
    2.0440    0.4766   -0.2200 C   0  0  0  0  0  0  0  0  0  0  0  0
    2.2217    0.8465    1.0281 N   0  0  0  0  0  0  0  0  0  0  0  0
    0.9794    0.9007    1.6269 N   0  0  0  0  0  0  0  0  0  0  0  0
    0.0797    0.5621    0.7247 C   0  0  0  0  0  0  0  0  0  0  0  0
    0.7182    0.2897   -0.4528 N   0  0  0  0  0  0  0  0  0  0  0  0
    0.0996   -0.1204   -1.6917 C   0  0  0  0  0  0  0  0  0  0  0  0
   -0.7562   -1.3790   -1.5541 C   0  0  0  0  0  0  0  0  0  0  0  0
   -2.0480   -1.1420   -0.9030 N   0  0  0  0  0  0  0  0  0  0  0  0
   -1.9472   -0.9063    0.5407 C   0  0  0  0  0  0  0  0  0  0  0  0
   -1.3911    0.4721    0.9011 C   0  0  0  0  0  0  0  0  0  0  0  0
    6.7204   -1.9209   -0.2960 H   0  0  0  0  0  0  0  0  0  0  0  0
    5.9903   -2.2564    1.2897 H   0  0  0  0  0  0  0  0  0  0  0  0
    6.4228   -0.5943    0.8493 H   0  0  0  0  0  0  0  0  0  0  0  0
    5.9550    1.1675    0.0811 H   0  0  0  0  0  0  0  0  0  0  0  0
    6.1154    0.6404   -1.6137 H   0  0  0  0  0  0  0  0  0  0  0  0
    4.2532    2.7540   -0.4551 H   0  0  0  0  0  0  0  0  0  0  0  0
    5.2042    2.8544   -1.9480 H   0  0  0  0  0  0  0  0  0  0  0  0
    2.5820    2.2435   -2.1411 H   0  0  0  0  0  0  0  0  0  0  0  0
    3.7524    1.2893   -3.0691 H   0  0  0  0  0  0  0  0  0  0  0  0
   -0.4860    0.7299   -2.0616 H   0  0  0  0  0  0  0  0  0  0  0  0
    0.8891   -0.3095   -2.4267 H   0  0  0  0  0  0  0  0  0  0  0  0
   -0.9745   -1.7508   -2.5620 H   0  0  0  0  0  0  0  0  0  0  0  0
   -0.2079   -2.1800   -1.0432 H   0  0  0  0  0  0  0  0  0  0  0  0
   -2.6727   -1.9278   -1.0811 H   0  0  0  0  0  0  0  0  0  0  0  0
   -2.9660   -0.9725    0.9411 H   0  0  0  0  0  0  0  0  0  0  0  0
   -1.3770   -1.7092    1.0245 H   0  0  0  0  0  0  0  0  0  0  0  0
   -1.8875    1.2582    0.3193 H   0  0  0  0  0  0  0  0  0  0  0  0
   -1.6250    0.6746    1.9537 H   0  0  0  0  0  0  0  0  0  0  0  0
  1  2  1  0  0  0  0
  2  3  2  0  0  0  0
  2  4  1  0  0  0  0
  4  8  1  0  0  0  0
  4  5  1  0  0  0  0
  5  6  1  0  0  0  0
  6  7  1  0  0  0  0
  7  8  1  0  0  0  0
  8  9  1  0  0  0  0
  8 10  1  0  0  0  0
 10 14  1  0  0  0  0
 10 11  2  0  0  0  0
 11 12  1  0  0  0  0
 12 13  2  0  0  0  0
 13 19  1  0  0  0  0
 13 14  1  0  0  0  0
 14 15  1  0  0  0  0
 15 16  1  0  0  0  0
 16 17  1  0  0  0  0
 17 18  1  0  0  0  0
 18 19  1  0  0  0  0
  1 20  1  0  0  0  0
  1 21  1  0  0  0  0
  1 22  1  0  0  0  0
  5 23  1  0  0  0  0
  5 24  1  0  0  0  0
  6 25  1  0  0  0  0
  6 26  1  0  0  0  0
  7 27  1  0  0  0  0
  7 28  1  0  0  0  0
 15 29  1  0  0  0  0
 15 30  1  0  0  0  0
 16 31  1  0  0  0  0
 16 32  1  0  0  0  0
 17 33  1  0  0  0  0
 18 34  1  0  0  0  0
 18 35  1  0  0  0  0
 19 36  1  0  0  0  0
 19 37  1  0  0  0  0
M  END
$$$$
