2-(2-fluorophenyl)-3,1-benzoxazin-4-one
  -OEChem-10071509483D

 26 28  0     0  0  0  0  0  0999 V2000
    1.9478   -0.9176   -0.0211 C   0  0  0  0  0  0  0  0  0  0  0  0
    0.8567   -0.2783   -0.6068 C   0  0  0  0  0  0  0  0  0  0  0  0
    0.8643    0.0047   -1.9736 C   0  0  0  0  0  0  0  0  0  0  0  0
    1.9628   -0.3496   -2.7636 C   0  0  0  0  0  0  0  0  0  0  0  0
    3.0468   -0.9875   -2.1689 C   0  0  0  0  0  0  0  0  0  0  0  0
    3.0474   -1.2747   -0.8003 C   0  0  0  0  0  0  0  0  0  0  0  0
    4.1958   -1.3551   -3.0105 C   0  0  0  0  0  0  0  0  0  0  0  0
    5.1782   -1.9170   -2.5442 O   0  0  0  0  0  0  0  0  0  0  0  0
    4.1008   -1.0343   -4.3286 O   0  0  0  0  0  0  0  0  0  0  0  0
    2.9950   -0.4107   -4.8111 C   0  0  0  0  0  0  0  0  0  0  0  0
    1.9552   -0.0595   -4.1280 N   0  0  0  0  0  0  0  0  0  0  0  0
    3.1227   -0.1619   -6.2680 C   0  0  0  0  0  0  0  0  0  0  0  0
    3.8768   -1.0306   -7.0569 C   0  0  0  0  0  0  0  0  0  0  0  0
    3.9994   -0.7997   -8.4271 C   0  0  0  0  0  0  0  0  0  0  0  0
    3.3681    0.3000   -9.0083 C   0  0  0  0  0  0  0  0  0  0  0  0
    2.6140    1.1687   -8.2193 C   0  0  0  0  0  0  0  0  0  0  0  0
    2.4914    0.9378   -6.8492 C   0  0  0  0  0  0  0  0  0  0  0  0
    1.7638    1.7795   -6.1009 F   0  0  0  0  0  0  0  0  0  0  0  0
    1.9415   -1.1373    1.0425 H   0  0  0  0  0  0  0  0  0  0  0  0
   -0.0003   -0.0009    0.0001 H   0  0  0  0  0  0  0  0  0  0  0  0
    0.0065    0.5028   -2.4188 H   0  0  0  0  0  0  0  0  0  0  0  0
    3.8898   -1.7718   -0.3277 H   0  0  0  0  0  0  0  0  0  0  0  0
    4.3732   -1.8909   -6.6149 H   0  0  0  0  0  0  0  0  0  0  0  0
    4.5865   -1.4760   -9.0415 H   0  0  0  0  0  0  0  0  0  0  0  0
    3.4636    0.4799  -10.0750 H   0  0  0  0  0  0  0  0  0  0  0  0
    2.1224    2.0249   -8.6716 H   0  0  0  0  0  0  0  0  0  0  0  0
  1  6  2  0  0  0  0
  1  2  1  0  0  0  0
  2  3  2  0  0  0  0
  3  4  1  0  0  0  0
  4 11  1  0  0  0  0
  4  5  2  0  0  0  0
  5  6  1  0  0  0  0
  5  7  1  0  0  0  0
  7  8  2  0  0  0  0
  7  9  1  0  0  0  0
  9 10  1  0  0  0  0
 10 11  2  0  0  0  0
 10 12  1  0  0  0  0
 12 17  2  0  0  0  0
 12 13  1  0  0  0  0
 13 14  2  0  0  0  0
 14 15  1  0  0  0  0
 15 16  2  0  0  0  0
 16 17  1  0  0  0  0
 17 18  1  0  0  0  0
  1 19  1  0  0  0  0
  2 20  1  0  0  0  0
  3 21  1  0  0  0  0
  6 22  1  0  0  0  0
 13 23  1  0  0  0  0
 14 24  1  0  0  0  0
 15 25  1  0  0  0  0
 16 26  1  0  0  0  0
M  END
$$$$
