2-(1-naphthyl)ethanol
  -OEChem-10071509473D

 25 26  0     0  0  0  0  0  0999 V2000
   -0.4966   -2.0341    0.4940 C   0  0  0  0  0  0  0  0  0  0  0  0
    0.3500   -1.0275    0.0392 C   0  0  0  0  0  0  0  0  0  0  0  0
    1.6484   -1.3369   -0.3665 C   0  0  0  0  0  0  0  0  0  0  0  0
    2.1168   -2.6602   -0.3222 C   0  0  0  0  0  0  0  0  0  0  0  0
    1.2560   -3.6839    0.1403 C   0  0  0  0  0  0  0  0  0  0  0  0
   -0.0479   -3.3542    0.5448 C   0  0  0  0  0  0  0  0  0  0  0  0
    1.7243   -5.0072    0.1848 C   0  0  0  0  0  0  0  0  0  0  0  0
    3.0228   -5.3167   -0.2210 C   0  0  0  0  0  0  0  0  0  0  0  0
    3.8693   -4.3100   -0.6758 C   0  0  0  0  0  0  0  0  0  0  0  0
    3.4207   -2.9899   -0.7267 C   0  0  0  0  0  0  0  0  0  0  0  0
    4.3825   -1.9565   -1.2260 C   0  0  0  0  0  0  0  0  0  0  0  0
    4.3059   -1.7517   -2.7380 C   0  0  0  0  0  0  0  0  0  0  0  0
    4.6045   -2.9727   -3.4027 O   0  0  0  0  0  0  0  0  0  0  0  0
   -1.5073   -1.7925    0.8097 H   0  0  0  0  0  0  0  0  0  0  0  0
   -0.0002   -0.0000    0.0001 H   0  0  0  0  0  0  0  0  0  0  0  0
    2.2793   -0.5228   -0.7155 H   0  0  0  0  0  0  0  0  0  0  0  0
   -0.7268   -4.1249    0.9038 H   0  0  0  0  0  0  0  0  0  0  0  0
    1.0800   -5.8102    0.5367 H   0  0  0  0  0  0  0  0  0  0  0  0
    3.3726   -6.3442   -0.1818 H   0  0  0  0  0  0  0  0  0  0  0  0
    4.8787   -4.5638   -0.9892 H   0  0  0  0  0  0  0  0  0  0  0  0
    4.1968   -0.9995   -0.7183 H   0  0  0  0  0  0  0  0  0  0  0  0
    5.4062   -2.2551   -0.9607 H   0  0  0  0  0  0  0  0  0  0  0  0
    3.2916   -1.4543   -3.0232 H   0  0  0  0  0  0  0  0  0  0  0  0
    5.0072   -0.9832   -3.0793 H   0  0  0  0  0  0  0  0  0  0  0  0
    4.5438   -2.7946   -4.3550 H   0  0  0  0  0  0  0  0  0  0  0  0
  1  6  2  0  0  0  0
  1  2  1  0  0  0  0
  2  3  2  0  0  0  0
  3  4  1  0  0  0  0
  4 10  2  0  0  0  0
  4  5  1  0  0  0  0
  5  6  1  0  0  0  0
  5  7  2  0  0  0  0
  7  8  1  0  0  0  0
  8  9  2  0  0  0  0
  9 10  1  0  0  0  0
 10 11  1  0  0  0  0
 11 12  1  0  0  0  0
 12 13  1  0  0  0  0
  1 14  1  0  0  0  0
  2 15  1  0  0  0  0
  3 16  1  0  0  0  0
  6 17  1  0  0  0  0
  7 18  1  0  0  0  0
  8 19  1  0  0  0  0
  9 20  1  0  0  0  0
 11 21  1  0  0  0  0
 11 22  1  0  0  0  0
 12 23  1  0  0  0  0
 12 24  1  0  0  0  0
 13 25  1  0  0  0  0
M  END
$$$$
