4-amino-~{N}-(2-phenylpyrazol-3-yl)benzenesulfonamide
  -OEChem-10071509503D

 36 38  0     0  0  0  0  0  0999 V2000
    1.8880   -1.0357   -0.1123 C   0  0  0  0  0  0  0  0  0  0  0  0
    0.9220   -1.7992    0.5432 C   0  0  0  0  0  0  0  0  0  0  0  0
    0.8779   -1.8207    1.9372 C   0  0  0  0  0  0  0  0  0  0  0  0
    1.7997   -1.0786    2.6757 C   0  0  0  0  0  0  0  0  0  0  0  0
    2.7656   -0.3151    2.0201 C   0  0  0  0  0  0  0  0  0  0  0  0
    2.8097   -0.2936    0.6261 C   0  0  0  0  0  0  0  0  0  0  0  0
    1.7565   -1.0993    4.0577 N   0  0  0  0  0  0  0  0  0  0  0  0
    2.0903   -0.1910    4.9784 C   0  0  0  0  0  0  0  0  0  0  0  0
    1.8779   -0.6467    6.2933 C   0  0  0  0  0  0  0  0  0  0  0  0
    1.3817   -1.9182    6.1401 C   0  0  0  0  0  0  0  0  0  0  0  0
    1.3295   -2.1385    4.7952 N   0  0  0  0  0  0  0  0  0  0  0  0
    2.6195    1.1364    4.6859 N   0  0  0  0  0  0  0  0  0  0  0  0
    1.5050    2.4158    4.4901 S   0  0  0  0  0  0  0  0  0  0  0  0
    2.2539    3.6543    4.3861 O   0  0  0  0  0  0  0  0  0  0  0  0
    0.5204    2.0822    3.4788 O   0  0  0  0  0  0  0  0  0  0  0  0
    0.6820    2.4444    6.0568 C   0  0  0  0  0  0  0  0  0  0  0  0
   -0.4653    1.6764    6.2563 C   0  0  0  0  0  0  0  0  0  0  0  0
   -1.1143    1.6999    7.4908 C   0  0  0  0  0  0  0  0  0  0  0  0
   -0.6161    2.4915    8.5257 C   0  0  0  0  0  0  0  0  0  0  0  0
    0.5311    3.2595    8.3260 C   0  0  0  0  0  0  0  0  0  0  0  0
    1.1801    3.2359    7.0916 C   0  0  0  0  0  0  0  0  0  0  0  0
   -1.2731    2.5153    9.7734 N   0  0  0  0  0  0  0  0  0  0  0  0
    1.9207   -1.0179   -1.1977 H   0  0  0  0  0  0  0  0  0  0  0  0
    0.2037   -2.3756   -0.0326 H   0  0  0  0  0  0  0  0  0  0  0  0
    0.1193   -2.4194    2.4354 H   0  0  0  0  0  0  0  0  0  0  0  0
    3.4895    0.2685    2.5837 H   0  0  0  0  0  0  0  0  0  0  0  0
    3.5611    0.3019    0.1159 H   0  0  0  0  0  0  0  0  0  0  0  0
    2.0738   -0.0900    7.1987 H   0  0  0  0  0  0  0  0  0  0  0  0
    1.0645   -2.6801    6.8346 H   0  0  0  0  0  0  0  0  0  0  0  0
    3.4937    1.3449    5.1687 H   0  0  0  0  0  0  0  0  0  0  0  0
   -0.8620    1.0574    5.4562 H   0  0  0  0  0  0  0  0  0  0  0  0
   -2.0067    1.0964    7.6355 H   0  0  0  0  0  0  0  0  0  0  0  0
    0.9284    3.8792    9.1260 H   0  0  0  0  0  0  0  0  0  0  0  0
    2.0726    3.8388    6.9472 H   0  0  0  0  0  0  0  0  0  0  0  0
   -0.8800    3.0496   10.5217 H   0  0  0  0  0  0  0  0  0  0  0  0
   -2.0670    1.9246    9.9178 H   0  0  0  0  0  0  0  0  0  0  0  0
  1  6  2  0  0  0  0
  1  2  1  0  0  0  0
  2  3  2  0  0  0  0
  3  4  1  0  0  0  0
  4  5  2  0  0  0  0
  5  6  1  0  0  0  0
  4  7  1  0  0  0  0
  7 11  1  0  0  0  0
  7  8  1  0  0  0  0
  8  9  2  0  0  0  0
  9 10  1  0  0  0  0
 10 11  2  0  0  0  0
  8 12  1  0  0  0  0
 12 13  1  0  0  0  0
 13 14  2  0  0  0  0
 13 15  2  0  0  0  0
 13 16  1  0  0  0  0
 16 21  2  0  0  0  0
 16 17  1  0  0  0  0
 17 18  2  0  0  0  0
 18 19  1  0  0  0  0
 19 20  2  0  0  0  0
 20 21  1  0  0  0  0
 19 22  1  0  0  0  0
  1 23  1  0  0  0  0
  2 24  1  0  0  0  0
  3 25  1  0  0  0  0
  5 26  1  0  0  0  0
  6 27  1  0  0  0  0
  9 28  1  0  0  0  0
 10 29  1  0  0  0  0
 12 30  1  0  0  0  0
 17 31  1  0  0  0  0
 18 32  1  0  0  0  0
 20 33  1  0  0  0  0
 21 34  1  0  0  0  0
 22 35  1  0  0  0  0
 22 36  1  0  0  0  0
M  END
$$$$
