1-[4-[4-[[(2~{R},4~{S})-2-(2,4-dichlorophenyl)-2-(imidazol-1-ylmethyl)-1,3-dioxo
  -OEChem-10071509483D

 64 68  0     1  0  0  0  0  0999 V2000
   -0.2641    5.0532   11.9326 C   0  0  0  0  0  0  0  0  0  0  0  0
   -0.6109    5.6121   10.5744 C   0  0  0  0  0  0  0  0  0  0  0  0
   -1.2023    6.6910   10.4920 O   0  0  0  0  0  0  0  0  0  0  0  0
   -0.2304    4.8414    9.4752 N   0  0  0  0  0  0  0  0  0  0  0  0
    0.4799    3.5645    9.5750 C   0  0  0  0  0  0  0  0  0  0  0  0
    0.3168    2.6969    8.3268 C   0  0  0  0  0  0  0  0  0  0  0  0
    0.7082    3.4371    7.1245 N   0  0  0  0  0  0  0  0  0  0  0  0
    0.5348    4.8925    7.1207 C   0  0  0  0  0  0  0  0  0  0  0  0
   -0.5355    5.3112    8.1263 C   0  0  0  0  0  0  0  0  0  0  0  0
    1.1959    2.7766    5.9994 C   0  0  0  0  0  0  0  0  0  0  0  0
    0.7723    1.4784    5.7145 C   0  0  0  0  0  0  0  0  0  0  0  0
    1.2604    0.8171    4.5876 C   0  0  0  0  0  0  0  0  0  0  0  0
    2.1721    1.4538    3.7456 C   0  0  0  0  0  0  0  0  0  0  0  0
    2.5957    2.7519    4.0305 C   0  0  0  0  0  0  0  0  0  0  0  0
    2.1076    3.4133    5.1575 C   0  0  0  0  0  0  0  0  0  0  0  0
    2.6494    0.8081    2.6468 O   0  0  0  0  0  0  0  0  0  0  0  0
    1.7891   -0.1496    2.0314 C   0  0  0  0  0  0  0  0  0  0  0  0
    2.0957   -0.1981    0.5501 C   0  0  1  0  0  0  0  0  0  0  0  0
    3.1403   -0.4885    0.3845 H   0  0  0  0  0  0  0  0  0  0  0  0
    1.1621   -1.0771   -0.2408 C   0  0  0  0  0  0  0  0  0  0  0  0
    1.3058   -0.5869   -1.5740 O   0  0  0  0  0  0  0  0  0  0  0  0
    1.6185    0.8138   -1.4339 C   0  0  2  0  0  0  0  0  0  0  0  0
    1.9001    1.0861   -0.0458 O   0  0  0  0  0  0  0  0  0  0  0  0
    0.3884    1.6292   -1.8310 C   0  0  0  0  0  0  0  0  0  0  0  0
   -0.7665    1.3257   -0.9957 N   0  0  0  0  0  0  0  0  0  0  0  0
   -1.1160    1.9466    0.1773 C   0  0  0  0  0  0  0  0  0  0  0  0
   -2.2655    1.4050    0.7024 C   0  0  0  0  0  0  0  0  0  0  0  0
   -2.6250    0.4250   -0.1793 N   0  0  0  0  0  0  0  0  0  0  0  0
   -1.6953    0.4142   -1.1816 C   0  0  0  0  0  0  0  0  0  0  0  0
    2.8056    1.1836   -2.3108 C   0  0  0  0  0  0  0  0  0  0  0  0
    3.0027    0.4698   -3.4929 C   0  0  0  0  0  0  0  0  0  0  0  0
    4.0797    0.7795   -4.3233 C   0  0  0  0  0  0  0  0  0  0  0  0
    4.9598    1.8030   -3.9716 C   0  0  0  0  0  0  0  0  0  0  0  0
    4.7627    2.5167   -2.7895 C   0  0  0  0  0  0  0  0  0  0  0  0
    3.6857    2.2070   -1.9591 C   0  0  0  0  0  0  0  0  0  0  0  0
    3.4713    3.1124   -0.5051 Cl  0  0  0  0  0  0  0  0  0  0  0  0
    6.2874    2.1862   -4.9976 Cl  0  0  0  0  0  0  0  0  0  0  0  0
   -1.0766    4.4216   12.3017 H   0  0  0  0  0  0  0  0  0  0  0  0
   -0.0978    5.8649   12.6463 H   0  0  0  0  0  0  0  0  0  0  0  0
    0.6487    4.4538   11.8747 H   0  0  0  0  0  0  0  0  0  0  0  0
    1.5434    3.7419    9.7605 H   0  0  0  0  0  0  0  0  0  0  0  0
    0.0720    3.0455   10.4510 H   0  0  0  0  0  0  0  0  0  0  0  0
    0.9397    1.7980    8.4190 H   0  0  0  0  0  0  0  0  0  0  0  0
   -0.7276    2.3730    8.2463 H   0  0  0  0  0  0  0  0  0  0  0  0
    1.4748    5.4033    7.3635 H   0  0  0  0  0  0  0  0  0  0  0  0
    0.2443    5.2052    6.1104 H   0  0  0  0  0  0  0  0  0  0  0  0
   -0.6068    6.4045    8.1783 H   0  0  0  0  0  0  0  0  0  0  0  0
   -1.5143    4.9346    7.8107 H   0  0  0  0  0  0  0  0  0  0  0  0
    0.0619    0.9729    6.3640 H   0  0  0  0  0  0  0  0  0  0  0  0
    0.9268   -0.1942    4.3710 H   0  0  0  0  0  0  0  0  0  0  0  0
    3.3061    3.2531    3.3784 H   0  0  0  0  0  0  0  0  0  0  0  0
    2.4442    4.4248    5.3701 H   0  0  0  0  0  0  0  0  0  0  0  0
    1.9657   -1.1214    2.4966 H   0  0  0  0  0  0  0  0  0  0  0  0
    0.7547    0.1540    2.2044 H   0  0  0  0  0  0  0  0  0  0  0  0
    1.4208   -2.1379   -0.1929 H   0  0  0  0  0  0  0  0  0  0  0  0
    0.1150   -0.9475    0.0547 H   0  0  0  0  0  0  0  0  0  0  0  0
    0.1142    1.4302   -2.8727 H   0  0  0  0  0  0  0  0  0  0  0  0
    0.5940    2.7019   -1.7471 H   0  0  0  0  0  0  0  0  0  0  0  0
   -0.4996    2.7506    0.5573 H   0  0  0  0  0  0  0  0  0  0  0  0
   -2.8175    1.6438    1.5971 H   0  0  0  0  0  0  0  0  0  0  0  0
   -1.7372   -0.2708   -2.0185 H   0  0  0  0  0  0  0  0  0  0  0  0
    2.3230   -0.3294   -3.7768 H   0  0  0  0  0  0  0  0  0  0  0  0
    4.2213    0.2150   -5.2413 H   0  0  0  0  0  0  0  0  0  0  0  0
    5.4495    3.3158   -2.5178 H   0  0  0  0  0  0  0  0  0  0  0  0
  1  2  1  0  0  0  0
  2  3  2  0  0  0  0
  2  4  1  0  0  0  0
  4  9  1  0  0  0  0
  4  5  1  0  0  0  0
  5  6  1  0  0  0  0
  6  7  1  0  0  0  0
  7  8  1  0  0  0  0
  8  9  1  0  0  0  0
  7 10  1  0  0  0  0
 10 15  2  0  0  0  0
 10 11  1  0  0  0  0
 11 12  2  0  0  0  0
 12 13  1  0  0  0  0
 13 14  2  0  0  0  0
 14 15  1  0  0  0  0
 13 16  1  0  0  0  0
 16 17  1  0  0  0  0
 17 18  1  0  0  0  0
 18 19  1  0  0  0  0
 18 23  1  0  0  0  0
 18 20  1  0  0  0  0
 20 21  1  0  0  0  0
 21 22  1  0  0  0  0
 22 23  1  0  0  0  0
 22 24  1  0  0  0  0
 24 25  1  0  0  0  0
 25 29  1  0  0  0  0
 25 26  1  0  0  0  0
 26 27  2  0  0  0  0
 27 28  1  0  0  0  0
 28 29  2  0  0  0  0
 22 30  1  0  0  0  0
 30 35  2  0  0  0  0
 30 31  1  0  0  0  0
 31 32  2  0  0  0  0
 32 33  1  0  0  0  0
 33 34  2  0  0  0  0
 34 35  1  0  0  0  0
 35 36  1  0  0  0  0
 33 37  1  0  0  0  0
  1 38  1  0  0  0  0
  1 39  1  0  0  0  0
  1 40  1  0  0  0  0
  5 41  1  0  0  0  0
  5 42  1  0  0  0  0
  6 43  1  0  0  0  0
  6 44  1  0  0  0  0
  8 45  1  0  0  0  0
  8 46  1  0  0  0  0
  9 47  1  0  0  0  0
  9 48  1  0  0  0  0
 11 49  1  0  0  0  0
 12 50  1  0  0  0  0
 14 51  1  0  0  0  0
 15 52  1  0  0  0  0
 17 53  1  0  0  0  0
 17 54  1  0  0  0  0
 20 55  1  0  0  0  0
 20 56  1  0  0  0  0
 24 57  1  0  0  0  0
 24 58  1  0  0  0  0
 26 59  1  0  0  0  0
 27 60  1  0  0  0  0
 29 61  1  0  0  0  0
 31 62  1  0  0  0  0
 32 63  1  0  0  0  0
 34 64  1  0  0  0  0
M  END
$$$$
