OctaAcidH
  DSViewer          3D                             0

184204  0  0  0  0  0  0  0  0999 V2000
   32.1570   41.8650   25.6910 C   0  0  0  0  0  0  0  0  0  1
   31.9200   40.4400   28.1100 C   0  0  0  0  0  0  0  0  0  2
   32.8760   42.2690   26.8300 C   0  0  0  0  0  0  0  0  0  3
   33.6850   42.9790   26.6810 H   0  0  0  0  0  0  0  0  0  4
   31.2680   40.7790   25.7680 C   0  0  0  0  0  0  0  0  0  5
   31.1100   40.1020   26.9910 C   0  0  0  0  0  0  0  0  0  6
   30.4320   39.2550   27.0670 H   0  0  0  0  0  0  0  0  0  7
   32.8950   41.4720   27.9950 C   0  0  0  0  0  0  0  0  0  8
   31.9560   39.6150   29.2630 O   0  0  0  0  0  0  0  0  0  9
   33.6650   41.9490   29.1990 C   0  0  1  0  0  0  0  0  0 10
   33.2200   41.5970   30.1320 H   0  0  0  0  0  0  0  0  0 11
   33.0830   38.7220   29.5610 C   0  0  1  0  0  0  0  0  0 12
   33.6200   38.4950   28.6280 H   0  0  0  0  0  0  0  0  0 13
   34.0440   39.4410   30.4170 O   0  0  0  0  0  0  0  0  0 14
   35.1870   40.0080   29.8440 C   0  0  0  0  0  0  0  0  0 15
   35.0340   41.2600   29.2610 C   0  0  0  0  0  0  0  0  0 16
   36.2040   41.8440   28.7060 C   0  0  0  0  0  0  0  0  0 17
   36.0280   42.8020   28.2240 H   0  0  0  0  0  0  0  0  0 18
   36.3600   39.2970   29.8390 C   0  0  0  0  0  0  0  0  0 19
   36.3670   38.2910   30.2510 H   0  0  0  0  0  0  0  0  0 20
   37.4050   41.1220   28.6690 C   0  0  0  0  0  0  0  0  0 21
   37.4670   39.8410   29.2280 C   0  0  0  0  0  0  0  0  0 22
   38.5450   39.0250   29.0710 O   0  0  0  0  0  0  0  0  0 23
   38.6120   41.7140   27.9010 C   0  0  1  0  0  0  0  0  0 24
   39.5030   41.3410   28.4110 H   0  0  0  0  0  0  0  0  0 25
   38.6950   41.2600   26.4640 C   0  0  0  0  0  0  0  0  0 26
   39.3330   39.9850   26.1950 C   0  0  0  0  0  0  0  0  0 27
   38.7350   38.3370   27.7860 C   0  0  1  0  0  0  0  0  0 28
   37.8660   38.4070   27.1150 H   0  0  0  0  0  0  0  0  0 29
   39.7680   39.1030   27.1800 O   0  0  0  0  0  0  0  0  0 30
   30.7440   40.1710   24.6080 O   0  0  0  0  0  0  0  0  0 31
   32.5140   42.4750   24.3570 C   0  0  2  0  0  0  0  0  0 32
   31.6420   42.2800   23.7290 H   0  0  0  0  0  0  0  0  0 33
   33.6480   41.7240   23.6650 C   0  0  0  0  0  0  0  0  0 34
   32.0610   40.0340   22.6030 O   0  0  0  0  0  0  0  0  0 35
   33.3460   40.6630   22.7880 C   0  0  0  0  0  0  0  0  0 36
   39.4480   39.5050   24.9200 C   0  0  0  0  0  0  0  0  0 37
   39.9380   38.5470   24.7690 H   0  0  0  0  0  0  0  0  0 38
   38.8920   40.1390   23.8470 C   0  0  0  0  0  0  0  0  0 39
   34.3230   39.9810   22.0750 C   0  0  0  0  0  0  0  0  0 40
   33.9970   39.1790   21.4170 H   0  0  0  0  0  0  0  0  0 41
   35.6370   40.3430   22.2010 C   0  0  0  0  0  0  0  0  0 42
   38.7510   39.4320   22.6530 O   0  0  0  0  0  0  0  0  0 43
   36.5980   39.5930   21.5850 O   0  0  0  0  0  0  0  0  0 44
   37.4840   38.7310   22.4370 C   0  0  2  0  0  0  0  0  0 45
   36.8510   38.6100   23.3280 H   0  0  0  0  0  0  0  0  0 46
   34.9590   42.1510   23.6950 C   0  0  0  0  0  0  0  0  0 47
   35.2960   43.0600   24.1870 H   0  0  0  0  0  0  0  0  0 48
   35.9820   41.5060   22.9540 C   0  0  0  0  0  0  0  0  0 49
   38.1610   41.9650   25.3260 C   0  0  0  0  0  0  0  0  0 50
   37.6590   42.9190   25.4610 H   0  0  0  0  0  0  0  0  0 51
   37.4780   42.0990   22.8970 C   0  0  2  0  0  0  0  0  0 52
   38.0580   41.7710   22.0320 H   0  0  0  0  0  0  0  0  0 53
   38.2400   41.4110   24.0020 C   0  0  0  0  0  0  0  0  0 54
   31.6110   39.3420   23.8190 C   0  0  1  0  0  0  0  0  0 55
   32.5660   39.1670   24.3350 H   0  0  0  0  0  0  0  0  0 56
   38.7120   43.2110   28.1130 C   0  0  0  0  0  0  0  0  0 57
   37.7920   43.6850   27.7660 H   0  0  0  0  0  0  0  0  0 58
   38.7430   43.3530   29.1960 H   0  0  0  0  0  0  0  0  0 59
   39.9620   43.8700   27.5260 C   0  0  0  0  0  0  0  0  0 60
   40.8190   43.4560   28.0620 H   0  0  0  0  0  0  0  0  0 61
   39.9620   43.6980   26.4480 H   0  0  0  0  0  0  0  0  0 62
   39.9440   45.4040   27.7460 C   0  0  0  0  0  0  0  0  0 63
   38.9380   45.9430   28.0820 O   0  5  0  0  0  0  0  0  0 64
   33.6830   43.4820   29.4060 C   0  0  0  0  0  0  0  0  0 65
   32.7490   43.8650   28.9900 H   0  0  0  0  0  0  0  0  0 66
   34.3410   44.0420   28.7380 H   0  0  0  0  0  0  0  0  0 67
   34.1050   43.9140   30.7990 C   0  0  0  0  0  0  0  0  0 68
   35.0200   43.4190   31.1320 H   0  0  0  0  0  0  0  0  0 69
   34.1490   44.9980   30.6720 H   0  0  0  0  0  0  0  0  0 70
   32.9390   43.6940   31.7070 C   0  0  0  0  0  0  0  0  0 71
   32.0710   44.5640   31.8470 O   0  5  0  0  0  0  0  0  0 72
   32.5710   44.0710   24.3220 C   0  0  0  0  0  0  0  0  0 73
   31.6980   44.5250   24.7940 H   0  0  0  0  0  0  0  0  0 74
   33.4520   44.3570   24.9000 H   0  0  0  0  0  0  0  0  0 75
   32.7400   44.5780   22.8980 C   0  0  0  0  0  0  0  0  0 76
   33.0410   45.6190   23.0320 H   0  0  0  0  0  0  0  0  0 77
   33.4490   44.0840   22.2300 H   0  0  0  0  0  0  0  0  0 78
   31.3640   44.4260   22.2770 C   0  0  0  0  0  0  0  0  0 79
   30.4790   45.2380   22.5550 O   0  5  0  0  0  0  0  0  0 80
   37.3530   43.7480   22.8780 C   0  0  0  0  0  0  0  0  0 81
   36.8810   44.1470   21.9790 H   0  0  0  0  0  0  0  0  0 82
   36.9340   44.2300   23.7640 H   0  0  0  0  0  0  0  0  0 83
   38.7940   44.3080   22.8180 C   0  0  0  0  0  0  0  0  0 84
   39.3890   43.9180   23.6460 H   0  0  0  0  0  0  0  0  0 85
   39.2830   43.9850   21.8960 H   0  0  0  0  0  0  0  0  0 86
   38.7200   45.8240   22.9730 C   0  0  0  0  0  0  0  0  0 87
   38.3030   46.3940   23.9390 O   0  0  0  0  0  0  0  0  0 88
   32.5800   37.4820   30.2450 C   0  0  0  0  0  0  0  0  0 89
   31.6500   35.0960   31.2780 C   0  0  0  0  0  0  0  0  0 90
   31.4360   34.1150   31.6930 H   0  0  0  0  0  0  0  0  0 91
   33.3740   36.7230   31.0590 C   0  0  0  0  0  0  0  0  0 92
   34.4280   36.9700   31.1500 H   0  0  0  0  0  0  0  0  0 93
   31.3110   37.0130   29.9590 C   0  0  0  0  0  0  0  0  0 94
   30.6560   37.6930   29.4200 H   0  0  0  0  0  0  0  0  0 95
   30.8100   35.8220   30.4820 C   0  0  0  0  0  0  0  0  0 96
   32.9320   35.5550   31.5280 C   0  0  0  0  0  0  0  0  0 97
   30.9510   37.9900   23.5780 C   0  0  0  0  0  0  0  0  0 98
   30.1550   35.3480   23.2740 C   0  0  0  0  0  0  0  0  0 99
   29.9280   34.2960   23.1270 H   0  0  0  0  0  0  0  0  0100
   31.2240   37.3750   22.4260 C   0  0  0  0  0  0  0  0  0101
   31.8790   37.7960   21.6660 H   0  0  0  0  0  0  0  0  0102
   30.2410   37.2680   24.5860 C   0  0  0  0  0  0  0  0  0103
   30.0820   37.8040   25.5180 H   0  0  0  0  0  0  0  0  0104
   29.8110   35.9750   24.4330 C   0  0  0  0  0  0  0  0  0105
   30.8340   36.0230   22.2610 C   0  0  0  0  0  0  0  0  0106
   37.6070   37.4150   21.7170 C   0  0  0  0  0  0  0  0  0107
   37.8830   34.9550   20.5450 C   0  0  0  0  0  0  0  0  0108
   37.9620   33.9460   20.1470 H   0  0  0  0  0  0  0  0  0109
   38.8280   36.7420   21.8220 C   0  0  0  0  0  0  0  0  0110
   39.6120   37.1390   22.4620 H   0  0  0  0  0  0  0  0  0111
   36.5100   36.8520   20.9620 C   0  0  0  0  0  0  0  0  0112
   35.5760   37.4070   20.9120 H   0  0  0  0  0  0  0  0  0113
   36.6570   35.5540   20.4180 C   0  0  0  0  0  0  0  0  0114
   38.9490   35.4730   21.2950 C   0  0  0  0  0  0  0  0  0115
   39.0890   36.8430   27.9510 C   0  0  0  0  0  0  0  0  0116
   39.3010   34.1080   27.9630 C   0  0  0  0  0  0  0  0  0117
   39.5860   33.0650   28.0740 H   0  0  0  0  0  0  0  0  0118
   39.8710   36.1930   26.9900 C   0  0  0  0  0  0  0  0  0119
   40.3170   36.7970   26.2040 H   0  0  0  0  0  0  0  0  0120
   38.3770   36.1350   28.9390 C   0  0  0  0  0  0  0  0  0121
   37.7080   36.6470   29.6260 H   0  0  0  0  0  0  0  0  0122
   38.4910   34.7620   28.8840 C   0  0  0  0  0  0  0  0  0123
   39.9360   34.8540   26.9840 C   0  0  0  0  0  0  0  0  0124
   29.2130   35.1910   25.4190 O   0  0  0  0  0  0  0  0  0125
   35.6590   34.9620   19.6680 O   0  0  0  0  0  0  0  0  0126
   40.0000   34.6870   21.4680 O   0  0  0  0  0  0  0  0  0127
   29.5460   35.3870   30.2180 O   0  0  0  0  0  0  0  0  0128
   33.6730   34.7320   32.3830 O   0  0  0  0  0  0  0  0  0129
   40.7480   34.0820   26.0970 O   0  0  0  0  0  0  0  0  0130
   37.6470   33.9820   29.6710 O   0  0  0  0  0  0  0  0  0131
   34.4250   35.5920   19.4890 C   0  0  0  0  0  0  0  0  0132
   31.9580   36.7870   19.3570 C   0  0  0  0  0  0  0  0  0133
   30.9850   37.2720   19.3390 H   0  0  0  0  0  0  0  0  0134
   33.4270   35.1950   20.3720 C   0  0  0  0  0  0  0  0  0135
   33.6930   34.4460   21.1140 H   0  0  0  0  0  0  0  0  0136
   34.2060   36.6550   18.5630 C   0  0  0  0  0  0  0  0  0137
   34.9980   36.8740   17.8510 H   0  0  0  0  0  0  0  0  0138
   32.9670   37.2870   18.5030 C   0  0  0  0  0  0  0  0  0139
   32.1910   35.7660   20.3200 C   0  0  0  0  0  0  0  0  0140
   31.2120   35.3650   21.1630 O   0  0  0  0  0  0  0  0  0141
   28.9790   35.7220   28.9830 C   0  0  0  0  0  0  0  0  0142
   27.6390   36.5180   26.7560 C   0  0  0  0  0  0  0  0  0143
   27.2470   36.8690   25.8050 H   0  0  0  0  0  0  0  0  0144
   27.8850   36.5990   29.1050 C   0  0  0  0  0  0  0  0  0145
   27.6030   36.9600   30.0910 H   0  0  0  0  0  0  0  0  0146
   29.4990   35.3560   27.7260 C   0  0  0  0  0  0  0  0  0147
   30.4740   34.8850   27.6240 H   0  0  0  0  0  0  0  0  0148
   28.7750   35.7320   26.6060 C   0  0  0  0  0  0  0  0  0149
   27.2380   37.0200   27.9950 C   0  0  0  0  0  0  0  0  0150
   40.7950   34.7500   22.5400 C   0  0  0  0  0  0  0  0  0151
   42.4290   35.1390   24.7380 C   0  0  0  0  0  0  0  0  0152
   43.1650   35.2470   25.5310 H   0  0  0  0  0  0  0  0  0153
   42.0480   35.3580   22.3440 C   0  0  0  0  0  0  0  0  0154
   42.4070   35.5670   21.3400 H   0  0  0  0  0  0  0  0  0155
   40.3490   34.3850   23.7640 C   0  0  0  0  0  0  0  0  0156
   39.3370   33.9920   23.8290 H   0  0  0  0  0  0  0  0  0157
   41.1470   34.5940   24.8950 C   0  0  0  0  0  0  0  0  0158
   42.8750   35.5640   23.4680 C   0  0  0  0  0  0  0  0  0159
   44.1400   36.4030   23.3530 C   0  0  0  0  0  0  0  0  0160
   44.4750   36.9900   22.3550 O   0  0  0  0  0  0  0  0  0161
   38.0790   34.6010   34.6210 C   0  0  0  0  0  0  0  0  0162
   37.5270   34.7880   35.6610 O   0  0  0  0  0  0  0  0  0163
   26.0880   38.1040   28.1130 C   0  0  0  0  0  0  0  0  0164
   25.3630   38.2140   27.1960 O   0  0  0  0  0  0  0  0  0165
   40.9020   46.0490   27.5570 O   0  0  0  0  0  0  0  0  0166
   39.2430   46.4220   22.0440 O   0  5  0  0  0  0  0  0  0167
   31.1370   43.4530   21.6080 O   0  0  0  0  0  0  0  0  0168
   32.6790   38.4540   17.6450 C   0  0  0  0  0  0  0  0  0169
   31.6720   39.1300   17.7860 O   0  0  0  0  0  0  0  0  0170
   39.3230   34.5780   34.5120 O   0  5  0  0  0  0  0  0  0171
   44.8880   36.4450   24.3210 O   0  5  0  0  0  0  0  0  0172
   33.5450   38.7800   16.8120 O   0  5  0  0  0  0  0  0  0173
   26.0340   38.9120   29.0090 O   0  5  0  0  0  0  0  0  0174
   32.8990   42.6950   32.4170 O   0  0  0  0  0  0  0  0  0175
   35.0490   34.5690   32.2280 C   0  0  0  0  0  0  0  0  0176
   37.8040   34.4850   32.0670 C   0  0  0  0  0  0  0  0  0177
   38.8610   34.2820   31.9110 H   0  0  0  0  0  0  0  0  0178
   35.6480   34.4180   30.9370 C   0  0  0  0  0  0  0  0  0179
   35.0420   34.4160   30.0340 H   0  0  0  0  0  0  0  0  0180
   35.8280   34.6080   33.4110 C   0  0  0  0  0  0  0  0  0181
   35.3870   34.6340   34.4040 H   0  0  0  0  0  0  0  0  0182
   37.2770   34.5930   33.3720 C   0  0  0  0  0  0  0  0  0183
   37.0570   34.3470   30.8940 C   0  0  0  0  0  0  0  0  0184
  1  5  2  0  0  0
  1 32  1  0  0  0
  1  3  1  0  0  0
  2  6  2  0  0  0
  2  8  1  0  0  0
  2  9  1  0  0  0
  3  8  2  0  0  0
  3  4  1  0  0  0
  5 31  1  0  0  0
  5  6  1  0  0  0
  6  7  1  0  0  0
  8 10  1  0  0  0
  9 12  1  0  0  0
 10 16  1  0  0  0
 10 65  1  0  0  0
 10 11  1  0  0  0
 12 13  1  0  0  0
 12 14  1  0  0  0
 12 89  1  0  0  0
 14 15  1  0  0  0
 15 19  2  0  0  0
 15 16  1  0  0  0
 16 17  2  0  0  0
 17 21  1  0  0  0
 17 18  1  0  0  0
 19 22  1  0  0  0
 19 20  1  0  0  0
 21 22  2  0  0  0
 21 24  1  0  0  0
 22 23  1  0  0  0
 23 28  1  0  0  0
 24 57  1  0  0  0
 24 26  1  0  0  0
 24 25  1  0  0  0
 26 50  2  0  0  0
 26 27  1  0  0  0
 27 37  2  0  0  0
 27 30  1  0  0  0
 28 29  1  0  0  0
 28 30  1  0  0  0
 28116  1  0  0  0
 31 55  1  0  0  0
 32 34  1  0  0  0
 32 33  1  0  0  0
 32 73  1  0  0  0
 34 47  2  0  0  0
 34 36  1  0  0  0
 35 36  1  0  0  0
 35 55  1  0  0  0
 36 40  2  0  0  0
 37 39  1  0  0  0
 37 38  1  0  0  0
 39 54  2  0  0  0
 39 43  1  0  0  0
 40 41  1  0  0  0
 40 42  1  0  0  0
 42 44  1  0  0  0
 42 49  2  0  0  0
 43 45  1  0  0  0
 44 45  1  0  0  0
 45107  1  0  0  0
 45 46  1  0  0  0
 47 48  1  0  0  0
 47 49  1  0  0  0
 49 52  1  0  0  0
 50 51  1  0  0  0
 50 54  1  0  0  0
 52 53  1  0  0  0
 52 81  1  0  0  0
 52 54  1  0  0  0
 55 56  1  0  0  0
 55 98  1  0  0  0
 57 58  1  0  0  0
 57 60  1  0  0  0
 57 59  1  0  0  0
 60 61  1  0  0  0
 60 63  1  0  0  0
 60 62  1  0  0  0
 63 64  1  0  0  0
 63166  2  0  0  0
 65 67  1  0  0  0
 65 66  1  0  0  0
 65 68  1  0  0  0
 68 69  1  0  0  0
 68 71  1  0  0  0
 68 70  1  0  0  0
 71 72  1  0  0  0
 71175  2  0  0  0
 73 76  1  0  0  0
 73 75  1  0  0  0
 73 74  1  0  0  0
 76 79  1  0  0  0
 76 78  1  0  0  0
 76 77  1  0  0  0
 79 80  1  0  0  0
 79168  2  0  0  0
 81 82  1  0  0  0
 81 84  1  0  0  0
 81 83  1  0  0  0
 84 87  1  0  0  0
 84 86  1  0  0  0
 84 85  1  0  0  0
 87167  1  0  0  0
 87 88  2  0  0  0
 89 92  2  0  0  0
 89 94  1  0  0  0
 90 91  1  0  0  0
 90 96  1  0  0  0
 90 97  2  0  0  0
 92 97  1  0  0  0
 92 93  1  0  0  0
 94 95  1  0  0  0
 94 96  2  0  0  0
 96128  1  0  0  0
 97129  1  0  0  0
 98103  2  0  0  0
 98101  1  0  0  0
 99100  1  0  0  0
 99105  2  0  0  0
 99106  1  0  0  0
101102  1  0  0  0
101106  2  0  0  0
103105  1  0  0  0
103104  1  0  0  0
105125  1  0  0  0
106141  1  0  0  0
107110  2  0  0  0
107112  1  0  0  0
108109  1  0  0  0
108114  1  0  0  0
108115  2  0  0  0
110115  1  0  0  0
110111  1  0  0  0
112114  2  0  0  0
112113  1  0  0  0
114126  1  0  0  0
115127  1  0  0  0
116119  2  0  0  0
116121  1  0  0  0
117124  2  0  0  0
117118  1  0  0  0
117123  1  0  0  0
119124  1  0  0  0
119120  1  0  0  0
121122  1  0  0  0
121123  2  0  0  0
123131  1  0  0  0
124130  1  0  0  0
125149  1  0  0  0
126132  1  0  0  0
127151  1  0  0  0
128142  1  0  0  0
129176  1  0  0  0
130158  1  0  0  0
131184  1  0  0  0
132135  2  0  0  0
132137  1  0  0  0
133139  1  0  0  0
133134  1  0  0  0
133140  2  0  0  0
135136  1  0  0  0
135140  1  0  0  0
137138  1  0  0  0
137139  2  0  0  0
139169  1  0  0  0
140141  1  0  0  0
142145  2  0  0  0
142147  1  0  0  0
143150  2  0  0  0
143149  1  0  0  0
143144  1  0  0  0
145146  1  0  0  0
145150  1  0  0  0
147148  1  0  0  0
147149  2  0  0  0
150164  1  0  0  0
151154  2  0  0  0
151156  1  0  0  0
152159  2  0  0  0
152158  1  0  0  0
152153  1  0  0  0
154155  1  0  0  0
154159  1  0  0  0
156157  1  0  0  0
156158  2  0  0  0
159160  1  0  0  0
160172  1  0  0  0
160161  2  0  0  0
162171  1  0  0  0
162183  1  0  0  0
162163  2  0  0  0
164165  2  0  0  0
164174  1  0  0  0
169173  1  0  0  0
169170  2  0  0  0
176181  2  0  0  0
176179  1  0  0  0
177178  1  0  0  0
177183  2  0  0  0
177184  1  0  0  0
179184  2  0  0  0
179180  1  0  0  0
181183  1  0  0  0
181182  1  0  0  0
M  CHG  8  64  -1  72  -1  80  -1 167  -1 171  -1 172  -1 173  -1 174  -1
M  END
$$$$
